                                  MODFLOW-LGR      
      U.S. GEOLOGICAL SURVEY MODULAR FINITE-DIFFERENCE GROUND-WATER FLOW MODEL
                             VERSION 1.2 ??/??/2008

 LIST FILE: child.lst
                         UNIT   26

 OPENING CHILD.ba6
 FILE TYPE:BAS6   UNIT   25   STATUS:OLD    
 FORMAT:FORMATTED              ACCESS:SEQUENTIAL          

 OPENING CHILD.lpf
 FILE TYPE:LPF   UNIT   27   STATUS:OLD    
 FORMAT:FORMATTED              ACCESS:SEQUENTIAL          

 OPENING CHILD.WEL
 FILE TYPE:WEL   UNIT   22   STATUS:OLD    
 FORMAT:FORMATTED              ACCESS:SEQUENTIAL          

 OPENING child.pcg
 FILE TYPE:PCG   UNIT   23   STATUS:OLD    
 FORMAT:FORMATTED              ACCESS:SEQUENTIAL          

 OPENING CHILD.OC
 FILE TYPE:OC   UNIT   24   STATUS:OLD    
 FORMAT:FORMATTED              ACCESS:SEQUENTIAL          

 OPENING headc
 FILE TYPE:DATA(BINARY)   UNIT   86   STATUS:UNKNOWN
 FORMAT:BINARY                 ACCESS:SEQUENTIAL          

 OPENING flowc
 FILE TYPE:DATA(BINARY)   UNIT   87   STATUS:UNKNOWN
 FORMAT:BINARY                 ACCESS:SEQUENTIAL          

 OPENING CHILD.dis
 FILE TYPE:DIS   UNIT   20   STATUS:OLD    
 FORMAT:FORMATTED              ACCESS:SEQUENTIAL          

 BAS -- BASIC PACKAGE, VERSION 7, 5/2/2005 INPUT READ FROM UNIT   25

 DISCRETIZATION INPUT DATA READ FROM UNIT   20
    1 LAYERS       100 ROWS       154 COLUMNS
    1 STRESS PERIOD(S) IN SIMULATION
 MODEL TIME UNIT IS UNDEFINED
 MODEL LENGTH UNIT IS UNDEFINED
  Confining bed flag for each layer:
   0

                     DELR =   1.02778    

                     DELC =   1.00000    

 TOP ELEVATION OF LAYER 1 =   1.00000    

   MODEL LAYER BOTTOM EL. =   0.00000     FOR LAYER   1


 STRESS PERIOD     LENGTH       TIME STEPS     MULTIPLIER FOR DELT    SS FLAG
 ----------------------------------------------------------------------------
        1         1.000000          1                    1.000         SS

 STEADY-STATE SIMULATION



 
 #Locally Refined Grid: Simple Heterogeneity                                     
 #Steffen Mehl 02/23/2004--> HETEROGENEOUS                                       
 THE FREE FORMAT OPTION HAS BEEN SELECTED
 CALCULATE FLOW BETWEEN ADJACENT CONSTANT-HEAD CELLS

 OPENING FILE ON UNIT   99:
 child.ibd                                                                                                                                                                                               



                     BOUNDARY ARRAY FOR LAYER   1
 READING ON UNIT   99 WITH FORMAT: (154I3)             

 AQUIFER HEAD WILL BE SET TO -999.00     AT ALL NO-FLOW NODES (IBOUND=0).

             INITIAL HEAD =   5.50000     FOR LAYER   1

 OUTPUT CONTROL IS SPECIFIED ONLY AT TIME STEPS FOR WHICH OUTPUT IS DESIRED
 HEAD PRINT FORMAT CODE IS   0    DRAWDOWN PRINT FORMAT CODE IS   0
 HEADS WILL BE SAVED ON UNIT   86    DRAWDOWNS WILL BE SAVED ON UNIT    0

 LGR -- LOCAL GRID REFINEMENT, VERSION 1.1, 11/10/2006
        INPUT READ FOR MODEL  2 DEFINED BY NAME FILE CHILD.nam

 LOCAL GRID REFINEMENT IS ACTIVE FOR CHILD ONLY
               STARTING HEADS FROM PARENT WILL BE USED: ISHFLG =   1
               VALUE IN IBOUND INDICATING BOUNDARY INTERFACE =  -59
               MAX NUMBER OF LGR ITERATIONS = 15
               LGR ITERATION RESULTS WRITTEN TO SCREEN: IOUTLGR =  -1

               WEIGHTING FACTORS FOR RELAXATION
               RELAXH(HEAD) RELAXF(FLUX)
               -------------------------
               0.500E+00      0.500E+00

               CLOSURE CRITERIA FOR LGR ITERATIONS
               HCLOSELGR       FCLOSELGR
               -------------------------
               1.000E-05      1.000E-05

               STARTING LAYER, ROW, COLUMN=   1,  20,  22
               ENDING LAYER, ROW, COLUMN=     1,  31,  39
               NCPP: NUMBER OF CHILD CELLS PER WIDTH OF PARENT CELL= 9
               NCPPL: NUMBER OF CHILD LAYERS IN LAYER  1 OF PARENT = 1

 LPF -- LAYER-PROPERTY FLOW PACKAGE, VERSION 7, 5/2/2005
         INPUT READ FROM UNIT   27
 # LPF file for child grid. Garcia heterogeneity
 CELL-BY-CELL FLOWS WILL BE SAVED ON UNIT   87
 HEAD AT CELLS THAT CONVERT TO DRY=   0.0000    
 No named parameters

   LAYER FLAGS:
 LAYER       LAYTYP        LAYAVG         CHANI        LAYVKA        LAYWET
 ---------------------------------------------------------------------------
    1             0             0     1.000E+00             0             0

   INTERPRETATION OF LAYER FLAGS:
                        INTERBLOCK     HORIZONTAL    DATA IN
         LAYER TYPE   TRANSMISSIVITY   ANISOTROPY   ARRAY VKA   WETTABILITY
 LAYER      (LAYTYP)      (LAYAVG)       (CHANI)      (LAYVKA)      (LAYWET)
 ---------------------------------------------------------------------------
    1      CONFINED      HARMONIC     1.000E+00    VERTICAL K  NON-WETTABLE

 WETTING CAPABILITY IS NOT ACTIVE IN ANY LAYER

 OPENING FILE ON UNIT   99:
 child_hk.dat                                                                                                                                                                                            



              HYD. COND. ALONG ROWS FOR LAYER   1
 READING ON UNIT   99 WITH FORMAT: (100F5.2)           

      VERTICAL HYD. COND. =   1.00000     FOR LAYER   1

 WEL -- WELL PACKAGE, VERSION 7, 5/2/2005 INPUT READ FROM UNIT   22
 No named parameters
 MAXIMUM OF      1 ACTIVE WELLS AT ONE TIME


     0 Well parameters

 PCG -- CONJUGATE-GRADIENT SOLUTION PACKAGE, VERSION 7, 5/2/2005
 MAXIMUM OF     25 CALLS OF SOLUTION ROUTINE
 MAXIMUM OF     35 INTERNAL ITERATIONS PER CALL TO SOLUTION ROUTINE
 MATRIX PRECONDITIONING TYPE :    1



                                    SOLUTION BY THE CONJUGATE-GRADIENT METHOD
                                   -------------------------------------------
                    MAXIMUM NUMBER OF CALLS TO PCG ROUTINE =       25
                        MAXIMUM ITERATIONS PER CALL TO PCG =       35
                               MATRIX PRECONDITIONING TYPE =        1
        RELAXATION FACTOR (ONLY USED WITH PRECOND. TYPE 1) =    0.10000E+01
 PARAMETER OF POLYNOMIAL PRECOND. = 2 (2) OR IS CALCULATED :        2
                         HEAD CHANGE CRITERION FOR CLOSURE =    0.10000E-07
                     RESIDUAL CHANGE CRITERION FOR CLOSURE =    0.10000E-07
            PCG HEAD AND RESIDUAL CHANGE PRINTOUT INTERVAL =      999
     PRINTING FROM SOLVER IS LIMITED(1) OR SUPPRESSED (>1) =        1
                                         DAMPING PARAMETER =    0.10000E+01
1
                            STRESS PERIOD NO.    1, LENGTH =   1.000000    
                            -----------------------------------------------

                              NUMBER OF TIME STEPS =     1

                               MULTIPLIER FOR DELT =     1.000

                            INITIAL TIME STEP SIZE =   1.000000    

 WELL NO.  LAYER   ROW   COL   STRESS RATE         
 --------------------------------------------------
      1      1     55     73     -0.5500E-02

      1 WELL 
 
 SOLVING FOR HEAD 


     2 CALLS TO PCG ROUTINE FOR TIME STEP   1 IN STRESS PERIOD    1
     4 TOTAL ITERATIONS


     3 CALLS TO PCG ROUTINE FOR TIME STEP   1 IN STRESS PERIOD    1
    54 TOTAL ITERATIONS


     2 CALLS TO PCG ROUTINE FOR TIME STEP   1 IN STRESS PERIOD    1
     3 TOTAL ITERATIONS


     2 CALLS TO PCG ROUTINE FOR TIME STEP   1 IN STRESS PERIOD    1
    36 TOTAL ITERATIONS


     2 CALLS TO PCG ROUTINE FOR TIME STEP   1 IN STRESS PERIOD    1
     3 TOTAL ITERATIONS


     2 CALLS TO PCG ROUTINE FOR TIME STEP   1 IN STRESS PERIOD    1
    35 TOTAL ITERATIONS


     2 CALLS TO PCG ROUTINE FOR TIME STEP   1 IN STRESS PERIOD    1
     3 TOTAL ITERATIONS


     2 CALLS TO PCG ROUTINE FOR TIME STEP   1 IN STRESS PERIOD    1
    31 TOTAL ITERATIONS


     2 CALLS TO PCG ROUTINE FOR TIME STEP   1 IN STRESS PERIOD    1
     3 TOTAL ITERATIONS


     2 CALLS TO PCG ROUTINE FOR TIME STEP   1 IN STRESS PERIOD    1
    30 TOTAL ITERATIONS


     2 CALLS TO PCG ROUTINE FOR TIME STEP   1 IN STRESS PERIOD    1
     3 TOTAL ITERATIONS


     2 CALLS TO PCG ROUTINE FOR TIME STEP   1 IN STRESS PERIOD    1
    28 TOTAL ITERATIONS


     2 CALLS TO PCG ROUTINE FOR TIME STEP   1 IN STRESS PERIOD    1
     3 TOTAL ITERATIONS


     2 CALLS TO PCG ROUTINE FOR TIME STEP   1 IN STRESS PERIOD    1
    27 TOTAL ITERATIONS


     2 CALLS TO PCG ROUTINE FOR TIME STEP   1 IN STRESS PERIOD    1
     3 TOTAL ITERATIONS


     2 CALLS TO PCG ROUTINE FOR TIME STEP   1 IN STRESS PERIOD    1
    27 TOTAL ITERATIONS


     2 CALLS TO PCG ROUTINE FOR TIME STEP   1 IN STRESS PERIOD    1
     3 TOTAL ITERATIONS


     2 CALLS TO PCG ROUTINE FOR TIME STEP   1 IN STRESS PERIOD    1
    26 TOTAL ITERATIONS


     2 CALLS TO PCG ROUTINE FOR TIME STEP   1 IN STRESS PERIOD    1
     3 TOTAL ITERATIONS


     2 CALLS TO PCG ROUTINE FOR TIME STEP   1 IN STRESS PERIOD    1
    24 TOTAL ITERATIONS


     2 CALLS TO PCG ROUTINE FOR TIME STEP   1 IN STRESS PERIOD    1
     3 TOTAL ITERATIONS


     2 CALLS TO PCG ROUTINE FOR TIME STEP   1 IN STRESS PERIOD    1
    21 TOTAL ITERATIONS


     2 CALLS TO PCG ROUTINE FOR TIME STEP   1 IN STRESS PERIOD    1
     3 TOTAL ITERATIONS


     2 CALLS TO PCG ROUTINE FOR TIME STEP   1 IN STRESS PERIOD    1
    19 TOTAL ITERATIONS

 OUTPUT CONTROL FOR STRESS PERIOD    1   TIME STEP   1
    SAVE HEAD FOR ALL LAYERS
    PRINT BUDGET
    SAVE BUDGET
 UBUDSV SAVING "   CONSTANT HEAD" ON UNIT 87 AT TIME STEP  1, STRESS PERIOD    1
 UBUDSV SAVING "FLOW RIGHT FACE " ON UNIT 87 AT TIME STEP  1, STRESS PERIOD    1
 UBUDSV SAVING "FLOW FRONT FACE " ON UNIT 87 AT TIME STEP  1, STRESS PERIOD    1

 HEAD WILL BE SAVED ON UNIT   86 AT END OF TIME STEP   1, STRESS PERIOD    1
1
  VOLUMETRIC BUDGET FOR ENTIRE MODEL AT END OF TIME STEP  1 IN STRESS PERIOD   1
  ------------------------------------------------------------------------------

     CUMULATIVE VOLUMES      L**3       RATES FOR THIS TIME STEP      L**3/T
     ------------------                 ------------------------

           IN:                                      IN:
           ---                                      ---
             STORAGE =           0.0000               STORAGE =           0.0000
       CONSTANT HEAD =       5.9554E-03         CONSTANT HEAD =       5.9554E-03
               WELLS =           0.0000                 WELLS =           0.0000

            TOTAL IN =       5.9554E-03              TOTAL IN =       5.9554E-03

          OUT:                                     OUT:
          ----                                     ----
             STORAGE =           0.0000               STORAGE =           0.0000
       CONSTANT HEAD =       4.5545E-04         CONSTANT HEAD =       4.5545E-04
               WELLS =       5.5000E-03                 WELLS =       5.5000E-03

           TOTAL OUT =       5.9554E-03             TOTAL OUT =       5.9554E-03

            IN - OUT =           0.0000              IN - OUT =           0.0000

 PERCENT DISCREPANCY =           0.00     PERCENT DISCREPANCY =           0.00






          TIME SUMMARY AT END OF TIME STEP   1 IN STRESS PERIOD    1
                          TIME STEP LENGTH =    1.00000    
                        STRESS PERIOD TIME =    1.00000    
                     TOTAL SIMULATION TIME =    1.00000    
1
1
  FLUX ACROSS PARENT-CHILD INTERFACE AT TIME STEP  1 IN STRESS PERIOD    1
  ------------------------------------------------------------------------

     CUMULATIVE VOLUMES      L**3       RATES FOR THIS TIME STEP      L**3/T
     ------------------                 ------------------------

   TOTAL IN TO CHILD =       5.8807E-03     TOTAL IN TO CHILD =       5.8807E-03

 TOTAL OUT TO PARENT =       3.8073E-04   TOTAL OUT TO PARENT =       3.8073E-04


 Run end date and time (yyyy/mm/dd hh:mm:ss): 2008/11/06 16:46:35
 Elapsed run time:  1.579 Seconds

