                                   MODFLOW 6
                U.S. GEOLOGICAL SURVEY MODULAR HYDROLOGIC MODEL
                          GROUNDWATER FLOW MODEL (GWF)
                            VERSION 6.7.0 02/05/2026

   MODFLOW 6 compiled Feb 05 2026 22:36:44 with Intel(R) Fortran Intel(R) 64
   Compiler Classic for applications running on Intel(R) 64, Version 2021.6.0
                             Build 20220226_000000

This software has been approved for release by the U.S. Geological 
Survey (USGS). Although the software has been subjected to rigorous 
review, the USGS reserves the right to update the software as needed 
pursuant to further analysis and review. No warranty, expressed or 
implied, is made by the USGS or the U.S. Government as to the 
functionality of the software and related material nor shall the 
fact of release constitute any such warranty. Furthermore, the 
software is released on condition that neither the USGS nor the U.S. 
Government shall be held liable for any damages resulting from its 
authorized or unauthorized use. Also refer to the USGS Water 
Resources Software User Rights Notice for complete use, copyright, 
and distribution information.


As a work of the United States Government, this USGS product is 
in the public domain within the United States. You can copy, 
modify, distribute, and perform the work, even for commercial 
purposes, all without asking permission. Additionally, USGS 
waives copyright and related rights in the work worldwide 
through CC0 1.0 Universal Public Domain Dedication 
(https://creativecommons.org/publicdomain/zero/1.0/).

The following GNU Lesser General Public License (LGPL) libraries
are used in this USGS product:

    SPARSKIT version 2.0
      ilut, luson, and qsplit 
      (https://www-users.cse.umn.edu/~saad/software/SPARSKIT/)

    RCM - Reverse Cuthill McKee Ordering
      (https://people.math.sc.edu/Burkardt/f_src/rcm/rcm.html)

    BLAS - Basic Linear Algebra Subprograms Level 1
      (https://people.math.sc.edu/Burkardt/f_src/blas1_d/blas1_d.html)

    SPARSEKIT - Sparse Matrix Utility Package
      amux, dperm, dvperm, rperm, and cperm
      (https://people.sc.fsu.edu/~jburkardt/f77_src/sparsekit/sparsekit.html)

The following BSD-3 License libraries are used in this USGS product:

    Modern Fortran DAG Library
      Copyright (c) 2018, Jacob Williams
      All rights reserved.
      (https://github.com/jacobwilliams/daglib)

MODFLOW 6 compiler options: /Isrc\libmf6_external.a.p /Isrc\libmf6core.a.p
/Isrc /I..\src /MT /nologo /warn:general /warn:truncated_source /stand:f18
/O2 /fpe:0 /heap-arrays:0 /traceback /fpp /Qdiag-disable:7416
/Qdiag-disable:7025 /Qdiag-disable:5268 /Qdiag-disable:10448
/Fdsrc\libmf6core.a.p\Utilities_compilerversion.F90.pdb
/module:src\libmf6core.a.p
/Fosrc/libmf6core.a.p/Utilities_compilerversion.F90.obj /c

System command used to initiate simulation:
C:\Python\Personal\mcculloch-processors\binaries\mf6.exe

MODFLOW was compiled using uniform precision.

Real Variables
  KIND: 8
  TINY (smallest non-zero value):    2.225074-308
  HUGE (largest value):    1.797693+308
  PRECISION: 15
  SIZE IN BITS: 64

Integer Variables
  KIND: 4
  HUGE (largest value): 2147483647
  SIZE IN BITS: 32

Long Integer Variables
  KIND: 8
  HUGE (largest value): 9223372036854775807
  SIZE IN BITS: 64

Logical Variables
  KIND: 4
  SIZE IN BITS: 32
 
 NAMEFILE OPTIONS:
 END NAMEFILE OPTIONS:

 DIS -- STRUCTURED GRID DISCRETIZATION PACKAGE, VERSION 2 : 3/27/2014 - INPUT READ FROM MEMPATH: __INPUT__/CHILD_MF6/DIS                           


 NPF -- NODE PROPERTY FLOW PACKAGE, VERSION 1, 3/30/2015 INPUT READ FROM MEMPATH: __INPUT__/CHILD_MF6/NPF                           


 IC -- Initial Conditions Package, Version 8, 3/28/2015 input read from mempath: __INPUT__/CHILD_MF6/IC                            


 Setting Discretization Options
    Model length unit [0=UND, 1=FEET, 2=METERS, 3=CENTIMETERS] set as 0
 End Setting Discretization Options

 Setting Discretization Dimensions
    NLAY = 1
    NROW = 100
    NCOL = 154
 End Setting Discretization Dimensions

 Setting Discretization Griddata
    DELR set from input file
    DELC set from input file
    TOP set from input file
    BOTM set from input file
 End Setting Discretization Griddata

 Setting NPF Options
    Cell-by-cell flow information will be saved to binary file whenever ICBCFL is not zero.
    Vertical flow will be adjusted for perched conditions.
    Vertical conductance varies with water table.
    Vertical conductance is calculated using only the saturated thickness and properties of the overlying cell if the head in the underlying cell is below its top.
 End Setting NPF Options

 Setting NPF Griddata
    ICELLTYPE set from input file
    K set from input file
    K33 not provided.  Setting K33 = K.
    K22 not provided.  Setting K22 = K.
 End Setting NPF Griddata


 WEL -- WEL PACKAGE, VERSION 8, 2/22/2014 INPUT READ FROM MEMPATH: __INPUT__/CHILD_MF6/WEL-1                         

 PROCESSING WEL BASE OPTIONS
    LISTS OF WEL CELLS WILL BE PRINTED.
    WEL FLOWS WILL BE PRINTED TO LISTING FILE.
 END OF WEL BASE OPTIONS

 PROCESSING WEL OPTIONS
 END OF WEL OPTIONS

 PROCESSING WEL BASE DIMENSIONS
    MAXBOUND =       1
 END OF WEL BASE DIMENSIONS

 CHD -- CHD PACKAGE, VERSION 8, 2/22/2014 INPUT READ FROM MEMPATH: __INPUT__/CHILD_MF6/CHD-FROM-IBOUND               

 PROCESSING CHD BASE OPTIONS
    LISTS OF CHD CELLS WILL BE PRINTED.
    CHD FLOWS WILL BE PRINTED TO LISTING FILE.
 END OF CHD BASE OPTIONS

 PROCESSING CHD BASE DIMENSIONS
    MAXBOUND =     504
 END OF CHD BASE DIMENSIONS
    STRT set from input file
    BINARY GRID INFORMATION WILL BE WRITTEN TO:
      UNIT NUMBER: 1014
      FILE NAME: CHILD_mf6.dis.grb

 OPENED CHILD_mf6.dis.grb
 FILE TYPE:DATA(BINARY)   UNIT 1014   STATUS:REPLACE             
 FORMAT:UNFORMATTED            ACCESS:STREAM              
 ACTION:READWRITE           

      THE LAST TIME STEP WILL BE PRINTED
      THE LAST TIME STEP WILL BE PRINTED

 PROCESSING OC OPTIONS

    BUDGET INFORMATION WILL BE WRITTEN TO:
      UNIT NUMBER: 1015
      FILE NAME: CHILD_mf6_flowc

 OPENED CHILD_mf6_flowc
 FILE TYPE:DATA(BINARY)   UNIT 1015   STATUS:REPLACE             
 FORMAT:UNFORMATTED            ACCESS:STREAM              
 ACTION:READWRITE           

    HEAD INFORMATION WILL BE WRITTEN TO:
      UNIT NUMBER: 1016
      FILE NAME: CHILD_mf6_headc

 OPENED CHILD_mf6_headc
 FILE TYPE:DATA(BINARY)   UNIT 1016   STATUS:REPLACE             
 FORMAT:UNFORMATTED            ACCESS:STREAM              
 ACTION:READWRITE           

 END OF OC OPTIONS

start timestep kper="1" kstp="1" mode="normal"


 BEGIN READING OUTPUT CONTROL FOR STRESS PERIOD 1
      ALL TIME STEPS WILL BE SAVED
      ALL TIME STEPS WILL BE PRINTED
      ALL TIME STEPS WILL BE SAVED

 END READING OUTPUT CONTROL FOR STRESS PERIOD 1
 ----------------------------------
  WEL NO.    LAYER    ROW     COL  
 ----------------------------------
     1         1      55      73   
 ----------------------------------


 ----------------------------------
  CHD NO.    LAYER    ROW     COL  
 ----------------------------------
     1         1       1       1   
     2         1       1       2   
     3         1       1       3   
     4         1       1       4   
     5         1       1       5   
     6         1       1       6   
     7         1       1       7   
     8         1       1       8   
     9         1       1       9   
     10        1       1      10   
     11        1       1      11   
     12        1       1      12   
     13        1       1      13   
     14        1       1      14   
     15        1       1      15   
     16        1       1      16   
     17        1       1      17   
     18        1       1      18   
     19        1       1      19   
     20        1       1      20   
     21        1       1      21   
     22        1       1      22   
     23        1       1      23   
     24        1       1      24   
     25        1       1      25   
     26        1       1      26   
     27        1       1      27   
     28        1       1      28   
     29        1       1      29   
     30        1       1      30   
     31        1       1      31   
     32        1       1      32   
     33        1       1      33   
     34        1       1      34   
     35        1       1      35   
     36        1       1      36   
     37        1       1      37   
     38        1       1      38   
     39        1       1      39   
     40        1       1      40   
     41        1       1      41   
     42        1       1      42   
     43        1       1      43   
     44        1       1      44   
     45        1       1      45   
     46        1       1      46   
     47        1       1      47   
     48        1       1      48   
     49        1       1      49   
     50        1       1      50   
     51        1       1      51   
     52        1       1      52   
     53        1       1      53   
     54        1       1      54   
     55        1       1      55   
     56        1       1      56   
     57        1       1      57   
     58        1       1      58   
     59        1       1      59   
     60        1       1      60   
     61        1       1      61   
     62        1       1      62   
     63        1       1      63   
     64        1       1      64   
     65        1       1      65   
     66        1       1      66   
     67        1       1      67   
     68        1       1      68   
     69        1       1      69   
     70        1       1      70   
     71        1       1      71   
     72        1       1      72   
     73        1       1      73   
     74        1       1      74   
     75        1       1      75   
     76        1       1      76   
     77        1       1      77   
     78        1       1      78   
     79        1       1      79   
     80        1       1      80   
     81        1       1      81   
     82        1       1      82   
     83        1       1      83   
     84        1       1      84   
     85        1       1      85   
     86        1       1      86   
     87        1       1      87   
     88        1       1      88   
     89        1       1      89   
     90        1       1      90   
     91        1       1      91   
     92        1       1      92   
     93        1       1      93   
     94        1       1      94   
     95        1       1      95   
     96        1       1      96   
     97        1       1      97   
     98        1       1      98   
     99        1       1      99   
    100        1       1      100  
    101        1       1      101  
    102        1       1      102  
    103        1       1      103  
    104        1       1      104  
    105        1       1      105  
    106        1       1      106  
    107        1       1      107  
    108        1       1      108  
    109        1       1      109  
    110        1       1      110  
    111        1       1      111  
    112        1       1      112  
    113        1       1      113  
    114        1       1      114  
    115        1       1      115  
    116        1       1      116  
    117        1       1      117  
    118        1       1      118  
    119        1       1      119  
    120        1       1      120  
    121        1       1      121  
    122        1       1      122  
    123        1       1      123  
    124        1       1      124  
    125        1       1      125  
    126        1       1      126  
    127        1       1      127  
    128        1       1      128  
    129        1       1      129  
    130        1       1      130  
    131        1       1      131  
    132        1       1      132  
    133        1       1      133  
    134        1       1      134  
    135        1       1      135  
    136        1       1      136  
    137        1       1      137  
    138        1       1      138  
    139        1       1      139  
    140        1       1      140  
    141        1       1      141  
    142        1       1      142  
    143        1       1      143  
    144        1       1      144  
    145        1       1      145  
    146        1       1      146  
    147        1       1      147  
    148        1       1      148  
    149        1       1      149  
    150        1       1      150  
    151        1       1      151  
    152        1       1      152  
    153        1       1      153  
    154        1       1      154  
    155        1       2       1   
    156        1       2      154  
    157        1       3       1   
    158        1       3      154  
    159        1       4       1   
    160        1       4      154  
    161        1       5       1   
    162        1       5      154  
    163        1       6       1   
    164        1       6      154  
    165        1       7       1   
    166        1       7      154  
    167        1       8       1   
    168        1       8      154  
    169        1       9       1   
    170        1       9      154  
    171        1      10       1   
    172        1      10      154  
    173        1      11       1   
    174        1      11      154  
    175        1      12       1   
    176        1      12      154  
    177        1      13       1   
    178        1      13      154  
    179        1      14       1   
    180        1      14      154  
    181        1      15       1   
    182        1      15      154  
    183        1      16       1   
    184        1      16      154  
    185        1      17       1   
    186        1      17      154  
    187        1      18       1   
    188        1      18      154  
    189        1      19       1   
    190        1      19      154  
    191        1      20       1   
    192        1      20      154  
    193        1      21       1   
    194        1      21      154  
    195        1      22       1   
    196        1      22      154  
    197        1      23       1   
    198        1      23      154  
    199        1      24       1   
    200        1      24      154  
    201        1      25       1   
    202        1      25      154  
    203        1      26       1   
    204        1      26      154  
    205        1      27       1   
    206        1      27      154  
    207        1      28       1   
    208        1      28      154  
    209        1      29       1   
    210        1      29      154  
    211        1      30       1   
    212        1      30      154  
    213        1      31       1   
    214        1      31      154  
    215        1      32       1   
    216        1      32      154  
    217        1      33       1   
    218        1      33      154  
    219        1      34       1   
    220        1      34      154  
    221        1      35       1   
    222        1      35      154  
    223        1      36       1   
    224        1      36      154  
    225        1      37       1   
    226        1      37      154  
    227        1      38       1   
    228        1      38      154  
    229        1      39       1   
    230        1      39      154  
    231        1      40       1   
    232        1      40      154  
    233        1      41       1   
    234        1      41      154  
    235        1      42       1   
    236        1      42      154  
    237        1      43       1   
    238        1      43      154  
    239        1      44       1   
    240        1      44      154  
    241        1      45       1   
    242        1      45      154  
    243        1      46       1   
    244        1      46      154  
    245        1      47       1   
    246        1      47      154  
    247        1      48       1   
    248        1      48      154  
    249        1      49       1   
    250        1      49      154  
    251        1      50       1   
    252        1      50      154  
    253        1      51       1   
    254        1      51      154  
    255        1      52       1   
    256        1      52      154  
    257        1      53       1   
    258        1      53      154  
    259        1      54       1   
    260        1      54      154  
    261        1      55       1   
    262        1      55      154  
    263        1      56       1   
    264        1      56      154  
    265        1      57       1   
    266        1      57      154  
    267        1      58       1   
    268        1      58      154  
    269        1      59       1   
    270        1      59      154  
    271        1      60       1   
    272        1      60      154  
    273        1      61       1   
    274        1      61      154  
    275        1      62       1   
    276        1      62      154  
    277        1      63       1   
    278        1      63      154  
    279        1      64       1   
    280        1      64      154  
    281        1      65       1   
    282        1      65      154  
    283        1      66       1   
    284        1      66      154  
    285        1      67       1   
    286        1      67      154  
    287        1      68       1   
    288        1      68      154  
    289        1      69       1   
    290        1      69      154  
    291        1      70       1   
    292        1      70      154  
    293        1      71       1   
    294        1      71      154  
    295        1      72       1   
    296        1      72      154  
    297        1      73       1   
    298        1      73      154  
    299        1      74       1   
    300        1      74      154  
    301        1      75       1   
    302        1      75      154  
    303        1      76       1   
    304        1      76      154  
    305        1      77       1   
    306        1      77      154  
    307        1      78       1   
    308        1      78      154  
    309        1      79       1   
    310        1      79      154  
    311        1      80       1   
    312        1      80      154  
    313        1      81       1   
    314        1      81      154  
    315        1      82       1   
    316        1      82      154  
    317        1      83       1   
    318        1      83      154  
    319        1      84       1   
    320        1      84      154  
    321        1      85       1   
    322        1      85      154  
    323        1      86       1   
    324        1      86      154  
    325        1      87       1   
    326        1      87      154  
    327        1      88       1   
    328        1      88      154  
    329        1      89       1   
    330        1      89      154  
    331        1      90       1   
    332        1      90      154  
    333        1      91       1   
    334        1      91      154  
    335        1      92       1   
    336        1      92      154  
    337        1      93       1   
    338        1      93      154  
    339        1      94       1   
    340        1      94      154  
    341        1      95       1   
    342        1      95      154  
    343        1      96       1   
    344        1      96      154  
    345        1      97       1   
    346        1      97      154  
    347        1      98       1   
    348        1      98      154  
    349        1      99       1   
    350        1      99      154  
    351        1      100      1   
    352        1      100      2   
    353        1      100      3   
    354        1      100      4   
    355        1      100      5   
    356        1      100      6   
    357        1      100      7   
    358        1      100      8   
    359        1      100      9   
    360        1      100     10   
    361        1      100     11   
    362        1      100     12   
    363        1      100     13   
    364        1      100     14   
    365        1      100     15   
    366        1      100     16   
    367        1      100     17   
    368        1      100     18   
    369        1      100     19   
    370        1      100     20   
    371        1      100     21   
    372        1      100     22   
    373        1      100     23   
    374        1      100     24   
    375        1      100     25   
    376        1      100     26   
    377        1      100     27   
    378        1      100     28   
    379        1      100     29   
    380        1      100     30   
    381        1      100     31   
    382        1      100     32   
    383        1      100     33   
    384        1      100     34   
    385        1      100     35   
    386        1      100     36   
    387        1      100     37   
    388        1      100     38   
    389        1      100     39   
    390        1      100     40   
    391        1      100     41   
    392        1      100     42   
    393        1      100     43   
    394        1      100     44   
    395        1      100     45   
    396        1      100     46   
    397        1      100     47   
    398        1      100     48   
    399        1      100     49   
    400        1      100     50   
    401        1      100     51   
    402        1      100     52   
    403        1      100     53   
    404        1      100     54   
    405        1      100     55   
    406        1      100     56   
    407        1      100     57   
    408        1      100     58   
    409        1      100     59   
    410        1      100     60   
    411        1      100     61   
    412        1      100     62   
    413        1      100     63   
    414        1      100     64   
    415        1      100     65   
    416        1      100     66   
    417        1      100     67   
    418        1      100     68   
    419        1      100     69   
    420        1      100     70   
    421        1      100     71   
    422        1      100     72   
    423        1      100     73   
    424        1      100     74   
    425        1      100     75   
    426        1      100     76   
    427        1      100     77   
    428        1      100     78   
    429        1      100     79   
    430        1      100     80   
    431        1      100     81   
    432        1      100     82   
    433        1      100     83   
    434        1      100     84   
    435        1      100     85   
    436        1      100     86   
    437        1      100     87   
    438        1      100     88   
    439        1      100     89   
    440        1      100     90   
    441        1      100     91   
    442        1      100     92   
    443        1      100     93   
    444        1      100     94   
    445        1      100     95   
    446        1      100     96   
    447        1      100     97   
    448        1      100     98   
    449        1      100     99   
    450        1      100     100  
    451        1      100     101  
    452        1      100     102  
    453        1      100     103  
    454        1      100     104  
    455        1      100     105  
    456        1      100     106  
    457        1      100     107  
    458        1      100     108  
    459        1      100     109  
    460        1      100     110  
    461        1      100     111  
    462        1      100     112  
    463        1      100     113  
    464        1      100     114  
    465        1      100     115  
    466        1      100     116  
    467        1      100     117  
    468        1      100     118  
    469        1      100     119  
    470        1      100     120  
    471        1      100     121  
    472        1      100     122  
    473        1      100     123  
    474        1      100     124  
    475        1      100     125  
    476        1      100     126  
    477        1      100     127  
    478        1      100     128  
    479        1      100     129  
    480        1      100     130  
    481        1      100     131  
    482        1      100     132  
    483        1      100     133  
    484        1      100     134  
    485        1      100     135  
    486        1      100     136  
    487        1      100     137  
    488        1      100     138  
    489        1      100     139  
    490        1      100     140  
    491        1      100     141  
    492        1      100     142  
    493        1      100     143  
    494        1      100     144  
    495        1      100     145  
    496        1      100     146  
    497        1      100     147  
    498        1      100     148  
    499        1      100     149  
    500        1      100     150  
    501        1      100     151  
    502        1      100     152  
    503        1      100     153  
    504        1      100     154  
 ----------------------------------


 UBDSV1 SAVING     FLOW-JA-FACE ON UNIT   1015 AT TIME STEP      1, STRESS PERIOD      1

 WEL PACKAGE (WEL-1) FLOW RATES   PERIOD      1   STEP        1
 -----------------------------------------------
   NUMBER   CELLID                    RATE      
 -----------------------------------------------
     1      (1,55,73)            -5.50000000E-03
 -----------------------------------------------




 CHD PACKAGE (CHD-FROM-IBOUND) FLOW RATES   PERIOD      1   STEP        1
 -----------------------------------------------
   NUMBER   CELLID                    RATE      
 -----------------------------------------------
     1      (1,1,1)               0.0000000     
     2      (1,1,2)               1.54954434E-07
     3      (1,1,3)               3.10043058E-07
     4      (1,1,4)               4.65399808E-07
     5      (1,1,5)               6.21157910E-07
     6      (1,1,6)               7.77449660E-07
     7      (1,1,7)               9.34406131E-07
     8      (1,1,8)               1.09215677E-06
     9      (1,1,9)               1.25082907E-06
     10     (1,1,10)              1.41054816E-06
     11     (1,1,11)              1.57143645E-06
     12     (1,1,12)              1.73361315E-06
     13     (1,1,13)              1.89719385E-06
     14     (1,1,14)              2.06228996E-06
     15     (1,1,15)              2.22900826E-06
     16     (1,1,16)              2.39745023E-06
     17     (1,1,17)              2.56771153E-06
     18     (1,1,18)              2.73988124E-06
     19     (1,1,19)              2.91404123E-06
     20     (1,1,20)              3.09026530E-06
     21     (1,1,21)              3.26861846E-06
     22     (1,1,22)              3.44915596E-06
     23     (1,1,23)              3.63192242E-06
     24     (1,1,24)              3.81695081E-06
     25     (1,1,25)              4.00426138E-06
     26     (1,1,26)              4.19386061E-06
     27     (1,1,27)              4.38574001E-06
     28     (1,1,28)              4.57987493E-06
     29     (1,1,29)              4.77622329E-06
     30     (1,1,30)              4.97472432E-06
     31     (1,1,31)              5.17529720E-06
     32     (1,1,32)              5.37783977E-06
     33     (1,1,33)              5.58222713E-06
     34     (1,1,34)              5.78831034E-06
     35     (1,1,35)              5.99591510E-06
     36     (1,1,36)              6.20484044E-06
     37     (1,1,37)              6.41485759E-06
     38     (1,1,38)              6.62570881E-06
     39     (1,1,39)              6.83710641E-06
     40     (1,1,40)              7.04873193E-06
     41     (1,1,41)              7.26023547E-06
     42     (1,1,42)              7.47123526E-06
     43     (1,1,43)              7.68131745E-06
     44     (1,1,44)              7.89003625E-06
     45     (1,1,45)              8.09691435E-06
     46     (1,1,46)              8.30144373E-06
     47     (1,1,47)              8.50308689E-06
     48     (1,1,48)              8.70127847E-06
     49     (1,1,49)              8.89542738E-06
     50     (1,1,50)              9.08491942E-06
     51     (1,1,51)              9.26912039E-06
     52     (1,1,52)              9.44737975E-06
     53     (1,1,53)              9.61903475E-06
     54     (1,1,54)              9.78341513E-06
     55     (1,1,55)              9.93984826E-06
     56     (1,1,56)              1.00876648E-05
     57     (1,1,57)              1.02262044E-05
     58     (1,1,58)              1.03548227E-05
     59     (1,1,59)              1.04728972E-05
     60     (1,1,60)              1.05798341E-05
     61     (1,1,61)              1.06750757E-05
     62     (1,1,62)              1.07581065E-05
     63     (1,1,63)              1.08284596E-05
     64     (1,1,64)              1.08857237E-05
     65     (1,1,65)              1.09295479E-05
     66     (1,1,66)              1.09596473E-05
     67     (1,1,67)              1.09758075E-05
     68     (1,1,68)              1.09778880E-05
     69     (1,1,69)              1.09658249E-05
     70     (1,1,70)              1.09396327E-05
     71     (1,1,71)              1.08994050E-05
     72     (1,1,72)              1.08453138E-05
     73     (1,1,73)              1.07776077E-05
     74     (1,1,74)              1.06966100E-05
     75     (1,1,75)              1.06027142E-05
     76     (1,1,76)              1.04963798E-05
     77     (1,1,77)              1.03781269E-05
     78     (1,1,78)              1.02485297E-05
     79     (1,1,79)              1.01082101E-05
     80     (1,1,80)              9.95783001E-06
     81     (1,1,81)              9.79808406E-06
     82     (1,1,82)              9.62969163E-06
     83     (1,1,83)              9.45338922E-06
     84     (1,1,84)              9.26992279E-06
     85     (1,1,85)              9.08004045E-06
     86     (1,1,86)              8.88448551E-06
     87     (1,1,87)              8.68399000E-06
     88     (1,1,88)              8.47926874E-06
     89     (1,1,89)              8.27101405E-06
     90     (1,1,90)              8.05989110E-06
     91     (1,1,91)              7.84653392E-06
     92     (1,1,92)              7.63154214E-06
     93     (1,1,93)              7.41547835E-06
     94     (1,1,94)              7.19886616E-06
     95     (1,1,95)              6.98218890E-06
     96     (1,1,96)              6.76588885E-06
     97     (1,1,97)              6.55036703E-06
     98     (1,1,98)              6.33598353E-06
     99     (1,1,99)              6.12305815E-06
    100     (1,1,100)             5.91187159E-06
    101     (1,1,101)             5.70266680E-06
    102     (1,1,102)             5.49565080E-06
    103     (1,1,103)             5.29099665E-06
    104     (1,1,104)             5.08884572E-06
    105     (1,1,105)             4.88931019E-06
    106     (1,1,106)             4.69247585E-06
    107     (1,1,107)             4.49840512E-06
    108     (1,1,108)             4.30714055E-06
    109     (1,1,109)             4.11870874E-06
    110     (1,1,110)             3.93312501E-06
    111     (1,1,111)             3.75039896E-06
    112     (1,1,112)             3.57054141E-06
    113     (1,1,113)             3.39357329E-06
    114     (1,1,114)             3.21953715E-06
    115     (1,1,115)             3.04851258E-06
    116     (1,1,116)             2.88063710E-06
    117     (1,1,117)             2.71613470E-06
    118     (1,1,118)             2.55535540E-06
    119     (1,1,119)             2.39883033E-06
    120     (1,1,120)             2.24734861E-06
    121     (1,1,121)             2.10206477E-06
    122     (1,1,122)             1.96464845E-06
    123     (1,1,123)             1.83749078E-06
    124     (1,1,124)             1.72398274E-06
    125     (1,1,125)             1.62887392E-06
    126     (1,1,126)             1.55868959E-06
    127     (1,1,127)             1.52209350E-06
    128     (1,1,128)             1.52985245E-06
    129     (1,1,129)             1.59354247E-06
    130     (1,1,130)             1.72121484E-06
    131     (1,1,131)             1.90742808E-06
    132     (1,1,132)             2.11794871E-06
    133     (1,1,133)             2.28806572E-06
    134     (1,1,134)             2.39412622E-06
    135     (1,1,135)             2.43957285E-06
    136     (1,1,136)             2.43634524E-06
    137     (1,1,137)             2.39628074E-06
    138     (1,1,138)             2.32870330E-06
    139     (1,1,139)             2.24039050E-06
    140     (1,1,140)             2.13614997E-06
    141     (1,1,141)             2.01940039E-06
    142     (1,1,142)             1.89261415E-06
    143     (1,1,143)             1.75762454E-06
    144     (1,1,144)             1.61583161E-06
    145     (1,1,145)             1.46833900E-06
    146     (1,1,146)             1.31604526E-06
    147     (1,1,147)             1.15970539E-06
    148     (1,1,148)             9.99972904E-07
    149     (1,1,149)             8.37429023E-07
    150     (1,1,150)             6.72603320E-07
    151     (1,1,151)             5.05988584E-07
    152     (1,1,152)             3.38051807E-07
    153     (1,1,153)             1.69242564E-07
    154     (1,1,154)             0.0000000     
    155     (1,2,1)               1.46691644E-07
    156     (1,2,154)             1.60217873E-07
    157     (1,3,1)               2.93263027E-07
    158     (1,3,154)             3.20824721E-07
    159     (1,4,1)               4.39593671E-07
    160     (1,4,154)             4.82204415E-07
    161     (1,5,1)               5.85562475E-07
    162     (1,5,154)             6.44732896E-07
    163     (1,6,1)               1.27907781E-07
    164     (1,6,154)             8.08774384E-07
    165     (1,7,1)               2.73285854E-07
    166     (1,7,154)             9.74679351E-07
    167     (1,8,1)               4.18433842E-07
    168     (1,8,154)             1.14278328E-06
    169     (1,9,1)               5.63228187E-07
    170     (1,9,154)             1.31340655E-06
    171     (1,10,1)              7.07544734E-07
    172     (1,10,154)            1.48685567E-06
    173     (1,11,1)              8.51258446E-07
    174     (1,11,154)            1.66342532E-06
    175     (1,12,1)              9.94243196E-07
    176     (1,12,154)            1.84340107E-06
    177     (1,13,1)              1.13637157E-06
    178     (1,13,154)            2.02706251E-06
    179     (1,14,1)              1.27751467E-06
    180     (1,14,154)            2.21468680E-06
    181     (1,15,1)              1.41754198E-06
    182     (1,15,154)            2.40655206E-06
    183     (1,16,1)              1.55632121E-06
    184     (1,16,154)            2.60294080E-06
    185     (1,17,1)              1.69371820E-06
    186     (1,17,154)            2.80414281E-06
    187     (1,18,1)              1.82959678E-06
    188     (1,18,154)            3.01045778E-06
    189     (1,19,1)              1.96381878E-06
    190     (1,19,154)            3.22219731E-06
    191     (1,20,1)              2.09624394E-06
    192     (1,20,154)            3.43968639E-06
    193     (1,21,1)              2.22672993E-06
    194     (1,21,154)            3.66326422E-06
    195     (1,22,1)              2.35513239E-06
    196     (1,22,154)            3.89328423E-06
    197     (1,23,1)              2.48130501E-06
    198     (1,23,154)            4.13011336E-06
    199     (1,24,1)              2.60509959E-06
    200     (1,24,154)            4.37413042E-06
    201     (1,25,1)              2.72636623E-06
    202     (1,25,154)            4.62572340E-06
    203     (1,26,1)              2.84495351E-06
    204     (1,26,154)            4.88528571E-06
    205     (1,27,1)              2.96070868E-06
    206     (1,27,154)            5.15321111E-06
    207     (1,28,1)              3.07347795E-06
    208     (1,28,154)            5.42988713E-06
    209     (1,29,1)              3.18310680E-06
    210     (1,29,154)            5.71568702E-06
    211     (1,30,1)              3.28944029E-06
    212     (1,30,154)            6.01095969E-06
    213     (1,31,1)              3.39232348E-06
    214     (1,31,154)            6.31601777E-06
    215     (1,32,1)              3.49160180E-06
    216     (1,32,154)            6.63112351E-06
    217     (1,33,1)              3.58712153E-06
    218     (1,33,154)            6.95647238E-06
    219     (1,34,1)              3.67873030E-06
    220     (1,34,154)            7.29217433E-06
    221     (1,35,1)              3.76627754E-06
    222     (1,35,154)            7.63823285E-06
    223     (1,36,1)              3.84961510E-06
    224     (1,36,154)            7.99452196E-06
    225     (1,37,1)              3.92859776E-06
    226     (1,37,154)            8.36076150E-06
    227     (1,38,1)              4.00308382E-06
    228     (1,38,154)            8.73649148E-06
    229     (1,39,1)              4.07293571E-06
    230     (1,39,154)            9.12104625E-06
    231     (1,40,1)              4.13802058E-06
    232     (1,40,154)            9.51352981E-06
    233     (1,41,1)              4.19821092E-06
    234     (1,41,154)            9.91279371E-06
    235     (1,42,1)              4.25338519E-06
    236     (1,42,154)            1.03174193E-05
    237     (1,43,1)              4.30342836E-06
    238     (1,43,154)            1.07257067E-05
    239     (1,44,1)              4.34823256E-06
    240     (1,44,154)            1.11356716E-05
    241     (1,45,1)              4.38769763E-06
    242     (1,45,154)            1.15450527E-05
    243     (1,46,1)              4.42173165E-06
    244     (1,46,154)            1.19513318E-05
    245     (1,47,1)              4.45025150E-06
    246     (1,47,154)            1.23517647E-05
    247     (1,48,1)              4.47318332E-06
    248     (1,48,154)            1.27434268E-05
    249     (1,49,1)              4.49046295E-06
    250     (1,49,154)            1.31232685E-05
    251     (1,50,1)              4.50203634E-06
    252     (1,50,154)            1.34881810E-05
    253     (1,51,1)              4.50785988E-06
    254     (1,51,154)            1.38350668E-05
    255     (1,52,1)              4.50790073E-06
    256     (1,52,154)            1.41609134E-05
    257     (1,53,1)              4.50213702E-06
    258     (1,53,154)            1.44628625E-05
    259     (1,54,1)              4.49055804E-06
    260     (1,54,154)            1.47382741E-05
    261     (1,55,1)              4.47316436E-06
    262     (1,55,154)            1.49847791E-05
    263     (1,56,1)              4.44996791E-06
    264     (1,56,154)            1.52003189E-05
    265     (1,57,1)              4.42099192E-06
    266     (1,57,154)            1.53831715E-05
    267     (1,58,1)              4.38627091E-06
    268     (1,58,154)            1.55319631E-05
    269     (1,59,1)              4.34585054E-06
    270     (1,59,154)            1.56456668E-05
    271     (1,60,1)              4.29978739E-06
    272     (1,60,154)            1.57235901E-05
    273     (1,61,1)              4.24814876E-06
    274     (1,61,154)            1.57653534E-05
    275     (1,62,1)              4.19101235E-06
    276     (1,62,154)            1.57708631E-05
    277     (1,63,1)              4.12846590E-06
    278     (1,63,154)            1.57402800E-05
    279     (1,64,1)              4.06060682E-06
    280     (1,64,154)            1.56739866E-05
    281     (1,65,1)              3.98754171E-06
    282     (1,65,154)            1.55725544E-05
    283     (1,66,1)              3.90938596E-06
    284     (1,66,154)            1.54367122E-05
    285     (1,67,1)              3.82626317E-06
    286     (1,67,154)            1.52673176E-05
    287     (1,68,1)              3.73830470E-06
    288     (1,68,154)            1.50653304E-05
    289     (1,69,1)              3.64564906E-06
    290     (1,69,154)            1.48317899E-05
    291     (1,70,1)              3.54844144E-06
    292     (1,70,154)            1.45677951E-05
    293     (1,71,1)              3.44683306E-06
    294     (1,71,154)            1.42744878E-05
    295     (1,72,1)              3.34098070E-06
    296     (1,72,154)            1.39530388E-05
    297     (1,73,1)              3.23104607E-06
    298     (1,73,154)            1.36046368E-05
    299     (1,74,1)              3.11719531E-06
    300     (1,74,154)            1.32304791E-05
    301     (1,75,1)              2.99959843E-06
    302     (1,75,154)            1.28317645E-05
    303     (1,76,1)              2.87842880E-06
    304     (1,76,154)            1.24096880E-05
    305     (1,77,1)              2.75386261E-06
    306     (1,77,154)            1.19654362E-05
    307     (1,78,1)              2.62607840E-06
    308     (1,78,154)            1.15001850E-05
    309     (1,79,1)              2.49525660E-06
    310     (1,79,154)            1.10150969E-05
    311     (1,80,1)              2.36157900E-06
    312     (1,80,154)            1.05113200E-05
    313     (1,81,1)              2.22522836E-06
    314     (1,81,154)            9.98998686E-06
    315     (1,82,1)              2.08638793E-06
    316     (1,82,154)            9.45221466E-06
    317     (1,83,1)              1.94524097E-06
    318     (1,83,154)            8.89910494E-06
    319     (1,84,1)              1.80197037E-06
    320     (1,84,154)            8.33174398E-06
    321     (1,85,1)              1.65675813E-06
    322     (1,85,154)            7.75120337E-06
    323     (1,86,1)              1.50978496E-06
    324     (1,86,154)            7.15854073E-06
    325     (1,87,1)              1.36122977E-06
    326     (1,87,154)            6.55480047E-06
    327     (1,88,1)              1.21126923E-06
    328     (1,88,154)            5.94101476E-06
    329     (1,89,1)              1.06007732E-06
    330     (1,89,154)            5.31820447E-06
    331     (1,90,1)              9.07824921E-07
    332     (1,90,154)            4.68738021E-06
    333     (1,91,1)              7.54679465E-07
    334     (1,91,154)            4.04954341E-06
    335     (1,92,1)              6.00804655E-07
    336     (1,92,154)            3.40568742E-06
    337     (1,93,1)              4.46360320E-07
    338     (1,93,154)            2.75679861E-06
    339     (1,94,1)              2.91502444E-07
    340     (1,94,154)            2.10385755E-06
    341     (1,95,1)              1.36383397E-07
    342     (1,95,154)            1.44784018E-06
    343     (1,96,1)              6.23680514E-07
    344     (1,96,154)            2.66129466E-06
    345     (1,97,1)              4.68061285E-07
    346     (1,97,154)            1.99932867E-06
    347     (1,98,1)              3.12176456E-07
    348     (1,98,154)            1.33448393E-06
    349     (1,99,1)              1.56127321E-07
    350     (1,99,154)            6.67721093E-07
    351     (1,100,1)             0.0000000     
    352     (1,100,2)             1.64921601E-07
    353     (1,100,3)             3.29930196E-07
    354     (1,100,4)             4.95103515E-07
    355     (1,100,5)             6.60499102E-07
    356     (1,100,6)             8.26141421E-07
    357     (1,100,7)             9.92005385E-07
    358     (1,100,8)             1.15799422E-06
    359     (1,100,9)             1.32390844E-06
    360     (1,100,10)            1.48940311E-06
    361     (1,100,11)            1.65392799E-06
    362     (1,100,12)            1.81664316E-06
    363     (1,100,13)            1.97629975E-06
    364     (1,100,14)            2.13107214E-06
    365     (1,100,15)            2.27832386E-06
    366     (1,100,16)            2.41428633E-06
    367     (1,100,17)            2.53363418E-06
    368     (1,100,18)            2.62896793E-06
    369     (1,100,19)            2.69030522E-06
    370     (1,100,20)            2.70492742E-06
    371     (1,100,21)            2.65850749E-06
    372     (1,100,22)            2.53956238E-06
    373     (1,100,23)            2.35052544E-06
    374     (1,100,24)            5.87087046E-06
    375     (1,100,25)            5.68792688E-06
    376     (1,100,26)            5.58221385E-06
    377     (1,100,27)            5.55695441E-06
    378     (1,100,28)            5.60087267E-06
    379     (1,100,29)            5.69943168E-06
    380     (1,100,30)            5.83949876E-06
    381     (1,100,31)            6.01060724E-06
    382     (1,100,32)            6.20486358E-06
    383     (1,100,33)            6.41645530E-06
    384     (1,100,34)            6.64112974E-06
    385     (1,100,35)            6.87575742E-06
    386     (1,100,36)            7.11799724E-06
    387     (1,100,37)            7.36604969E-06
    388     (1,100,38)            7.61847831E-06
    389     (1,100,39)            7.87408142E-06
    390     (1,100,40)            8.13180044E-06
    391     (1,100,41)            8.39065421E-06
    392     (1,100,42)            8.64969206E-06
    393     (1,100,43)            8.90796044E-06
    394     (1,100,44)            9.16447950E-06
    395     (1,100,45)            9.41822732E-06
    396     (1,100,46)            9.66813005E-06
    397     (1,100,47)            9.91305736E-06
    398     (1,100,48)            1.01518226E-05
    399     (1,100,49)            1.03831876E-05
    400     (1,100,50)            1.06058731E-05
    401     (1,100,51)            1.08185750E-05
    402     (1,100,52)            1.10199877E-05
    403     (1,100,53)            1.12088372E-05
    404     (1,100,54)            1.13839261E-05
    405     (1,100,55)            1.15441935E-05
    406     (1,100,56)            1.16887970E-05
    407     (1,100,57)            1.18172220E-05
    408     (1,100,58)            1.19294302E-05
    409     (1,100,59)            1.20260616E-05
    410     (1,100,60)            1.21087107E-05
    411     (1,100,61)            1.21803069E-05
    412     (1,100,62)            1.22456413E-05
    413     (1,100,63)            1.23121006E-05
    414     (1,100,64)            1.23906918E-05
    415     (1,100,65)            1.24974800E-05
    416     (1,100,66)            1.26556069E-05
    417     (1,100,67)            1.28981243E-05
    418     (1,100,68)            1.32719534E-05
    419     (1,100,69)            1.38433631E-05
    420     (1,100,70)            1.47053897E-05
    421     (1,100,71)            1.59874472E-05
    422     (1,100,72)            1.78666020E-05
    423     (1,100,73)            2.05776162E-05
    424     (1,100,74)            2.44127067E-05
    425     (1,100,75)            2.96880487E-05
    426     (1,100,76)            3.66285655E-05
    427     (1,100,77)            4.50982482E-05
    428     (1,100,78)            5.41764219E-05
    429     (1,100,79)            6.20859241E-05
    430     (1,100,80)            6.81329817E-05
    431     (1,100,81)            7.23893918E-05
    432     (1,100,82)            7.51928383E-05
    433     (1,100,83)            7.68963810E-05
    434     (1,100,84)            7.77882538E-05
    435     (1,100,85)            7.80833516E-05
    436     (1,100,86)            7.79363745E-05
    437     (1,100,87)            7.74576664E-05
    438     (1,100,88)            7.67262727E-05
    439     (1,100,89)            7.57994985E-05
    440     (1,100,90)            7.47195834E-05
    441     (1,100,91)            7.35182736E-05
    442     (1,100,92)            7.22199396E-05
    443     (1,100,93)            7.08437032E-05
    444     (1,100,94)            6.94048955E-05
    445     (1,100,95)            6.79160634E-05
    446     (1,100,96)            6.63876690E-05
    447     (1,100,97)            6.48285793E-05
    448     (1,100,98)            6.32464134E-05
    449     (1,100,99)            6.16477905E-05
    450     (1,100,100)           6.00385094E-05
    451     (1,100,101)           5.84236813E-05
    452     (1,100,102)           5.68078289E-05
    453     (1,100,103)           5.51949627E-05
    454     (1,100,104)           5.35886403E-05
    455     (1,100,105)           5.19920150E-05
    456     (1,100,106)           5.04078753E-05
    457     (1,100,107)           4.88386786E-05
    458     (1,100,108)           4.72865809E-05
    459     (1,100,109)           4.57534618E-05
    460     (1,100,110)           4.42409486E-05
    461     (1,100,111)           4.27504372E-05
    462     (1,100,112)           4.12831109E-05
    463     (1,100,113)           3.98399590E-05
    464     (1,100,114)           3.84217929E-05
    465     (1,100,115)           3.70292613E-05
    466     (1,100,116)           3.56628646E-05
    467     (1,100,117)           3.43229675E-05
    468     (1,100,118)           3.30098115E-05
    469     (1,100,119)           3.17235256E-05
    470     (1,100,120)           3.04641365E-05
    471     (1,100,121)           2.92315778E-05
    472     (1,100,122)           2.80256983E-05
    473     (1,100,123)           2.68462699E-05
    474     (1,100,124)           2.56929939E-05
    475     (1,100,125)           2.45655077E-05
    476     (1,100,126)           2.34633898E-05
    477     (1,100,127)           2.23861649E-05
    478     (1,100,128)           2.13333085E-05
    479     (1,100,129)           2.03042503E-05
    480     (1,100,130)           1.92983778E-05
    481     (1,100,131)           1.83150396E-05
    482     (1,100,132)           1.73535476E-05
    483     (1,100,133)           1.64131802E-05
    484     (1,100,134)           1.54931835E-05
    485     (1,100,135)           1.45927742E-05
    486     (1,100,136)           1.37111408E-05
    487     (1,100,137)           1.28474457E-05
    488     (1,100,138)           1.20008266E-05
    489     (1,100,139)           1.11703979E-05
    490     (1,100,140)           1.03552523E-05
    491     (1,100,141)           9.55446226E-06
    492     (1,100,142)           8.76708129E-06
    493     (1,100,143)           7.99214531E-06
    494     (1,100,144)           7.22867403E-06
    495     (1,100,145)           6.47567235E-06
    496     (1,100,146)           5.73213167E-06
    497     (1,100,147)           4.99703126E-06
    498     (1,100,148)           4.26933970E-06
    499     (1,100,149)           3.54801626E-06
    500     (1,100,150)           2.83201211E-06
    501     (1,100,151)           2.12027165E-06
    502     (1,100,152)           1.41173371E-06
    503     (1,100,153)           7.05332231E-07
    504     (1,100,154)           0.0000000     
 -----------------------------------------------




 HEAD WILL BE SAVED ON UNIT 1016 AT END OF TIME STEP    1, STRESS PERIOD    1


  VOLUME BUDGET FOR ENTIRE MODEL AT END OF TIME STEP    1, STRESS PERIOD   1
  ---------------------------------------------------------------------------------------------------

     CUMULATIVE VOLUME      L**3       RATES FOR THIS TIME STEP      L**3/T          PACKAGE NAME    
     ------------------                 ------------------------                     ----------------

           IN:                                      IN:
           ---                                      ---
                 WEL =           0.0000                   WEL =           0.0000     WEL-1                            
                 CHD =       5.5000E-03                   CHD =       5.5000E-03     CHD-FROM-IBOUND                  

            TOTAL IN =       5.5000E-03              TOTAL IN =       5.5000E-03

          OUT:                                     OUT:
          ----                                     ----
                 WEL =       5.5000E-03                   WEL =       5.5000E-03     WEL-1                            
                 CHD =           0.0000                   CHD =           0.0000     CHD-FROM-IBOUND                  

           TOTAL OUT =       5.5000E-03             TOTAL OUT =       5.5000E-03

            IN - OUT =      -8.7125E-11              IN - OUT =      -8.7125E-11

 PERCENT DISCREPANCY =          -0.00     PERCENT DISCREPANCY =          -0.00




         TIME SUMMARY AT END OF TIME STEP    1 IN STRESS PERIOD    1
                          TIME STEP LENGTH =    1.00000    
                        STRESS PERIOD TIME =    1.00000    
                     TOTAL SIMULATION TIME =    1.00000    

end timestep

