                                  MODFLOW-LGR      
      U.S. GEOLOGICAL SURVEY MODULAR FINITE-DIFFERENCE GROUND-WATER FLOW MODEL
                             VERSION 1.2 ??/??/2008

 LIST FILE: parent.lst
                         UNIT   16

 OPENING PARENT.ba6
 FILE TYPE:BAS6   UNIT   15   STATUS:OLD    
 FORMAT:FORMATTED              ACCESS:SEQUENTIAL          

 OPENING PARENT.lpf
 FILE TYPE:LPF   UNIT   17   STATUS:OLD    
 FORMAT:FORMATTED              ACCESS:SEQUENTIAL          

 OPENING PARENT.WEL
 FILE TYPE:WEL   UNIT   12   STATUS:OLD    
 FORMAT:FORMATTED              ACCESS:SEQUENTIAL          

 OPENING parent.pcg
 FILE TYPE:PCG   UNIT   13   STATUS:OLD    
 FORMAT:FORMATTED              ACCESS:SEQUENTIAL          

 OPENING PARENT.OC
 FILE TYPE:OC   UNIT   14   STATUS:OLD    
 FORMAT:FORMATTED              ACCESS:SEQUENTIAL          

 OPENING hedp
 FILE TYPE:DATA(BINARY)   UNIT   76   STATUS:UNKNOWN
 FORMAT:BINARY                 ACCESS:SEQUENTIAL          

 OPENING flowp
 FILE TYPE:DATA(BINARY)   UNIT   77   STATUS:UNKNOWN
 FORMAT:BINARY                 ACCESS:SEQUENTIAL          

 OPENING PARENT.dis
 FILE TYPE:DIS   UNIT   10   STATUS:OLD    
 FORMAT:FORMATTED              ACCESS:SEQUENTIAL          

 BAS -- BASIC PACKAGE, VERSION 7, 5/2/2005 INPUT READ FROM UNIT   15

 DISCRETIZATION INPUT DATA READ FROM UNIT   10
    1 LAYERS        50 ROWS       108 COLUMNS
    1 STRESS PERIOD(S) IN SIMULATION
 MODEL TIME UNIT IS SECONDS
 MODEL LENGTH UNIT IS UNDEFINED
  Confining bed flag for each layer:
   0

                     DELR =   9.25000    

                     DELC =   9.00000    

 TOP ELEVATION OF LAYER 1 =   1.00000    

   MODEL LAYER BOTTOM EL. =   0.00000     FOR LAYER   1


 STRESS PERIOD     LENGTH       TIME STEPS     MULTIPLIER FOR DELT    SS FLAG
 ----------------------------------------------------------------------------
        1         1.000000          1                    1.000         SS

 STEADY-STATE SIMULATION



 
 #Locally Refined Grid:  Simple Heterogeneity                                    
 #Steffen Mehl 02/23/2004-> HETEROGENEOUS and PUMPING WELL                       
 THE FREE FORMAT OPTION HAS BEEN SELECTED
 CALCULATE FLOW BETWEEN ADJACENT CONSTANT-HEAD CELLS

 OPENING FILE ON UNIT   99:
 parent.ibd                                                                                                                                                                                              



                     BOUNDARY ARRAY FOR LAYER   1
 READING ON UNIT   99 WITH FORMAT: (108I3)             

 AQUIFER HEAD WILL BE SET TO -999.00     AT ALL NO-FLOW NODES (IBOUND=0).

 OPENING FILE ON UNIT   99:
 parent.shd                                                                                                                                                                                              



                       INITIAL HEAD FOR LAYER   1
 READING ON UNIT   99 WITH FORMAT: (108F5.3)           

 OUTPUT CONTROL IS SPECIFIED ONLY AT TIME STEPS FOR WHICH OUTPUT IS DESIRED
 HEAD PRINT FORMAT CODE IS   0    DRAWDOWN PRINT FORMAT CODE IS   0
 HEADS WILL BE SAVED ON UNIT   76    DRAWDOWNS WILL BE SAVED ON UNIT    0

 LGR -- LOCAL GRID REFINEMENT, VERSION 1.1, 11/10/2006
        INPUT READ FOR MODEL  1 DEFINED BY NAME FILE PARENT.nam

 LOCAL GRID REFINEMENT IS ACTIVE FOR PARENT ONLY
               BOUNDARY FLUXES WILL BE SAVED ON UNIT 770

 LPF -- LAYER-PROPERTY FLOW PACKAGE, VERSION 7, 5/2/2005
         INPUT READ FROM UNIT   17
 # LPF file for parent grid.  Garcia heterogeneity
 CELL-BY-CELL FLOWS WILL BE SAVED ON UNIT   77
 HEAD AT CELLS THAT CONVERT TO DRY=   0.0000    
 No named parameters

   LAYER FLAGS:
 LAYER       LAYTYP        LAYAVG         CHANI        LAYVKA        LAYWET
 ---------------------------------------------------------------------------
    1             0             0     1.000E+00             0             0

   INTERPRETATION OF LAYER FLAGS:
                        INTERBLOCK     HORIZONTAL    DATA IN
         LAYER TYPE   TRANSMISSIVITY   ANISOTROPY   ARRAY VKA   WETTABILITY
 LAYER      (LAYTYP)      (LAYAVG)       (CHANI)      (LAYVKA)      (LAYWET)
 ---------------------------------------------------------------------------
    1      CONFINED      HARMONIC     1.000E+00    VERTICAL K  NON-WETTABLE

 WETTING CAPABILITY IS NOT ACTIVE IN ANY LAYER

 OPENING FILE ON UNIT   99:
 parent_hk.dat                                                                                                                                                                                           



              HYD. COND. ALONG ROWS FOR LAYER   1
 READING ON UNIT   99 WITH FORMAT: (50F5.2)            

      VERTICAL HYD. COND. =   1.00000     FOR LAYER   1

 WEL -- WELL PACKAGE, VERSION 7, 5/2/2005 INPUT READ FROM UNIT   12
 No named parameters
 MAXIMUM OF      1 ACTIVE WELLS AT ONE TIME


     0 Well parameters

 PCG -- CONJUGATE-GRADIENT SOLUTION PACKAGE, VERSION 7, 5/2/2005
 MAXIMUM OF     25 CALLS OF SOLUTION ROUTINE
 MAXIMUM OF     35 INTERNAL ITERATIONS PER CALL TO SOLUTION ROUTINE
 MATRIX PRECONDITIONING TYPE :    1



                                    SOLUTION BY THE CONJUGATE-GRADIENT METHOD
                                   -------------------------------------------
                    MAXIMUM NUMBER OF CALLS TO PCG ROUTINE =       25
                        MAXIMUM ITERATIONS PER CALL TO PCG =       35
                               MATRIX PRECONDITIONING TYPE =        1
        RELAXATION FACTOR (ONLY USED WITH PRECOND. TYPE 1) =    0.10000E+01
 PARAMETER OF POLYNOMIAL PRECOND. = 2 (2) OR IS CALCULATED :        2
                         HEAD CHANGE CRITERION FOR CLOSURE =    0.10000E-07
                     RESIDUAL CHANGE CRITERION FOR CLOSURE =    0.10000E-07
            PCG HEAD AND RESIDUAL CHANGE PRINTOUT INTERVAL =      999
     PRINTING FROM SOLVER IS LIMITED(1) OR SUPPRESSED (>1) =        1
                                         DAMPING PARAMETER =    0.10000E+01
1
                            STRESS PERIOD NO.    1, LENGTH =   1.000000    
                            -----------------------------------------------

                              NUMBER OF TIME STEPS =     1

                               MULTIPLIER FOR DELT =     1.000

                            INITIAL TIME STEP SIZE =   1.000000    

 WELL NO.  LAYER   ROW   COL   STRESS RATE         
 --------------------------------------------------
      1      1     26     30     -0.5500E-02

      1 WELL 
 
 SOLVING FOR HEAD 


     6 CALLS TO PCG ROUTINE FOR TIME STEP   1 IN STRESS PERIOD    1
   139 TOTAL ITERATIONS


     4 CALLS TO PCG ROUTINE FOR TIME STEP   1 IN STRESS PERIOD    1
   102 TOTAL ITERATIONS


     4 CALLS TO PCG ROUTINE FOR TIME STEP   1 IN STRESS PERIOD    1
    88 TOTAL ITERATIONS


     4 CALLS TO PCG ROUTINE FOR TIME STEP   1 IN STRESS PERIOD    1
    86 TOTAL ITERATIONS


     4 CALLS TO PCG ROUTINE FOR TIME STEP   1 IN STRESS PERIOD    1
    85 TOTAL ITERATIONS


     4 CALLS TO PCG ROUTINE FOR TIME STEP   1 IN STRESS PERIOD    1
    74 TOTAL ITERATIONS


     3 CALLS TO PCG ROUTINE FOR TIME STEP   1 IN STRESS PERIOD    1
    66 TOTAL ITERATIONS


     3 CALLS TO PCG ROUTINE FOR TIME STEP   1 IN STRESS PERIOD    1
    61 TOTAL ITERATIONS


     3 CALLS TO PCG ROUTINE FOR TIME STEP   1 IN STRESS PERIOD    1
    56 TOTAL ITERATIONS


     3 CALLS TO PCG ROUTINE FOR TIME STEP   1 IN STRESS PERIOD    1
    47 TOTAL ITERATIONS


     3 CALLS TO PCG ROUTINE FOR TIME STEP   1 IN STRESS PERIOD    1
    48 TOTAL ITERATIONS


     3 CALLS TO PCG ROUTINE FOR TIME STEP   1 IN STRESS PERIOD    1
    38 TOTAL ITERATIONS

 OUTPUT CONTROL FOR STRESS PERIOD    1   TIME STEP   1
    PRINT HEAD FOR ALL LAYERS
    SAVE HEAD FOR ALL LAYERS
    PRINT BUDGET
    SAVE BUDGET
 UBUDSV SAVING "   CONSTANT HEAD" ON UNIT 77 AT TIME STEP  1, STRESS PERIOD    1
 UBUDSV SAVING "FLOW RIGHT FACE " ON UNIT 77 AT TIME STEP  1, STRESS PERIOD    1
 UBUDSV SAVING "FLOW FRONT FACE " ON UNIT 77 AT TIME STEP  1, STRESS PERIOD    1
1
              HEAD IN LAYER   1 AT END OF TIME STEP   1 IN STRESS PERIOD    1
  ---------------------------------------------------------------------------

            1           2           3           4           5           6           7           8           9          10
           11          12          13          14          15          16          17          18          19          20
           21          22          23          24          25          26          27          28          29          30
           31          32          33          34          35          36          37          38          39          40
           41          42          43          44          45          46          47          48          49          50
           51          52          53          54          55          56          57          58          59          60
           61          62          63          64          65          66          67          68          69          70
           71          72          73          74          75          76          77          78          79          80
           81          82          83          84          85          86          87          88          89          90
           91          92          93          94          95          96          97          98          99         100
          101         102         103         104         105         106         107         108
 ........................................................................................................................
   1    10.00       9.725       9.450       9.174       8.896       8.618       8.339       8.059       7.779       7.500    
        7.225       6.956       6.693       6.437       6.186       5.936       5.683       5.425       5.250       5.160    
        5.065       4.968       4.870       4.776       4.687       4.605       4.529       4.458       4.391       4.325    
        4.260       4.195       4.129       4.060       3.990       3.915       3.873       3.863       3.850       3.835    
        3.817       3.797       3.777       3.755       3.733       3.711       3.688       3.665       3.641       3.618    
        3.595       3.572       3.550       3.528       3.508       3.488       3.469       3.451       3.432       3.413    
        3.393       3.373       3.352       3.331       3.311       3.290       3.270       3.250       3.231       3.213    
        3.195       3.177       3.161       3.146       3.131       3.119       3.109       3.102       3.077       3.034    
        2.993       2.956       2.919       2.882       2.844       2.806       2.768       2.730       2.694       2.660    
        2.595       2.497       2.402       2.306       2.210       2.111       2.009       1.902       1.788       1.668    
        1.540       1.403       1.308       1.255       1.196       1.133       1.067       1.000    
   2    10.00       9.725       9.450       9.175       8.897       8.619       8.339       8.058       7.777       7.497    
        7.220       6.949       6.687       6.433       6.185       5.938       5.688       5.431       5.257       5.165    
        5.068       4.967       4.867       4.771       4.681       4.599       4.524       4.455       4.389       4.324    
        4.260       4.196       4.131       4.063       3.993       3.919       3.876       3.866       3.853       3.837    
        3.818       3.799       3.778       3.756       3.734       3.711       3.688       3.665       3.641       3.618    
        3.595       3.572       3.549       3.528       3.507       3.488       3.469       3.451       3.432       3.413    
        3.394       3.373       3.352       3.331       3.310       3.290       3.269       3.250       3.230       3.212    
        3.194       3.177       3.160       3.144       3.130       3.117       3.106       3.099       3.074       3.031    
        2.991       2.954       2.919       2.883       2.845       2.806       2.767       2.729       2.692       2.658    
        2.592       2.496       2.401       2.307       2.212       2.115       2.014       1.907       1.795       1.675    
        1.547       1.410       1.314       1.261       1.201       1.136       1.069       1.000    
   3    10.00       9.726       9.452       9.177       8.900       8.621       8.341       8.058       7.775       7.491    
        7.210       6.935       6.673       6.424       6.183       5.943       5.699       5.446       5.270       5.175    
        5.073       4.967       4.861       4.759       4.667       4.586       4.515       4.449       4.385       4.323    
        4.261       4.198       4.134       4.068       3.999       3.926       3.883       3.872       3.858       3.840    
        3.821       3.801       3.779       3.757       3.735       3.712       3.689       3.665       3.642       3.618    
        3.594       3.571       3.548       3.526       3.505       3.486       3.468       3.451       3.433       3.415    
        3.395       3.374       3.353       3.331       3.310       3.289       3.268       3.248       3.229       3.211    
        3.193       3.175       3.158       3.142       3.126       3.112       3.101       3.093       3.067       3.025    
        2.987       2.952       2.919       2.884       2.847       2.807       2.766       2.726       2.688       2.652    
        2.587       2.492       2.400       2.309       2.217       2.122       2.023       1.919       1.809       1.691    
        1.564       1.426       1.328       1.272       1.209       1.142       1.072       1.000    
   4    10.00       9.728       9.454       9.180       8.904       8.626       8.344       8.060       7.772       7.482    
        7.192       6.909       6.645       6.407       6.179       5.953       5.720       5.473       5.295       5.193    
        5.082       4.967       4.851       4.739       4.641       4.565       4.500       4.440       4.381       4.322    
        4.262       4.202       4.140       4.077       4.009       3.937       3.894       3.882       3.865       3.846    
        3.826       3.804       3.782       3.759       3.736       3.713       3.689       3.666       3.642       3.618    
        3.593       3.569       3.545       3.522       3.502       3.484       3.467       3.451       3.434       3.417    
        3.397       3.376       3.353       3.331       3.309       3.288       3.267       3.247       3.227       3.209    
        3.191       3.174       3.156       3.138       3.121       3.106       3.092       3.082       3.055       3.014    
        2.980       2.949       2.920       2.889       2.851       2.808       2.765       2.722       2.680       2.643    
        2.577       2.486       2.399       2.312       2.224       2.133       2.037       1.936       1.829       1.714    
        1.590       1.453       1.351       1.290       1.222       1.150       1.075       1.000    
   5    10.00       9.729       9.458       9.185       8.910       8.632       8.351       8.064       7.772       7.473    
        7.169       6.866       6.593       6.380       6.175       5.968       5.753       5.522       5.335       5.218    
        5.094       4.967       4.837       4.707       4.594       4.533       4.482       4.430       4.376       4.321    
        4.264       4.207       4.148       4.088       4.025       3.956       3.911       3.895       3.875       3.853    
        3.831       3.808       3.784       3.761       3.737       3.714       3.690       3.666       3.642       3.618    
        3.593       3.567       3.542       3.517       3.496       3.480       3.465       3.451       3.437       3.422    
        3.401       3.378       3.354       3.331       3.308       3.286       3.264       3.244       3.225       3.206    
        3.189       3.173       3.154       3.134       3.115       3.097       3.080       3.067       3.034       2.997    
        2.969       2.945       2.923       2.900       2.859       2.811       2.763       2.716       2.670       2.627    
        2.560       2.476       2.396       2.317       2.234       2.148       2.057       1.960       1.857       1.747    
        1.629       1.497       1.386       1.315       1.239       1.160       1.080       1.000    
   6    10.00       9.732       9.463       9.193       8.920       8.643       8.362       8.074       7.777       7.469    
        7.145       6.794       6.521       6.356       6.175       5.983       5.785       5.588       5.401       5.251    
        5.110       4.970       4.822       4.657       4.542       4.511       4.472       4.425       4.374       4.321    
        4.266       4.210       4.153       4.095       4.036       3.974       3.929       3.906       3.883       3.859    
        3.835       3.810       3.786       3.762       3.738       3.715       3.691       3.667       3.642       3.618    
        3.592       3.566       3.539       3.511       3.490       3.477       3.464       3.451       3.439       3.427    
        3.407       3.380       3.354       3.330       3.306       3.284       3.262       3.242       3.222       3.204    
        3.188       3.173       3.154       3.129       3.107       3.086       3.065       3.043       3.011       2.984    
        2.961       2.942       2.926       2.914       2.874       2.814       2.760       2.708       2.656       2.602    
        2.536       2.466       2.395       2.321       2.244       2.161       2.073       1.979       1.879       1.774    
        1.664       1.550       1.437       1.345       1.257       1.171       1.086       1.000    
   7    10.00       9.735       9.470       9.202       8.932       8.658       8.379       8.091       7.793       7.481    
        7.147       6.783       6.518       6.361       6.184       5.995       5.801       5.610       5.431       5.274    
        5.126       4.980       4.825       4.653       4.547       4.517       4.476       4.429       4.376       4.322    
        4.267       4.211       4.155       4.098       4.040       3.979       3.936       3.912       3.888       3.863    
        3.837       3.812       3.787       3.763       3.739       3.715       3.691       3.667       3.643       3.618    
        3.593       3.567       3.539       3.510       3.489       3.477       3.464       3.451       3.439       3.427    
        3.407       3.379       3.353       3.329       3.305       3.282       3.260       3.239       3.219       3.201    
        3.184       3.170       3.150       3.123       3.098       3.075       3.052       3.028       3.002       2.978    
        2.956       2.938       2.923       2.912       2.874       2.812       2.754       2.700       2.645       2.589    
        2.528       2.464       2.397       2.327       2.253       2.173       2.087       1.994       1.895       1.791    
        1.684       1.575       1.468       1.369       1.275       1.183       1.091       1.000    
   8    10.00       9.739       9.478       9.215       8.949       8.679       8.403       8.119       7.824       7.512    
        7.177       6.810       6.544       6.385       6.205       6.011       5.813       5.620       5.443       5.287    
        5.142       4.998       4.843       4.670       4.564       4.532       4.488       4.436       4.381       4.324    
        4.268       4.213       4.158       4.103       4.046       3.987       3.945       3.920       3.893       3.866    
        3.839       3.813       3.787       3.763       3.739       3.716       3.692       3.668       3.644       3.620    
        3.594       3.568       3.540       3.511       3.490       3.478       3.464       3.451       3.438       3.425    
        3.405       3.377       3.351       3.326       3.302       3.279       3.257       3.236       3.215       3.196    
        3.179       3.164       3.142       3.114       3.088       3.064       3.040       3.016       2.992       2.969    
        2.949       2.930       2.915       2.904       2.867       2.805       2.746       2.691       2.636       2.581    
        2.523       2.463       2.401       2.336       2.267       2.191       2.107       2.014       1.915       1.811    
        1.705       1.598       1.492       1.390       1.291       1.193       1.096       1.000    
   9    10.00       9.744       9.488       9.230       8.969       8.705       8.435       8.157       7.869       7.565    
        7.238       6.874       6.599       6.430       6.238       6.032       5.821       5.615       5.434       5.289    
        5.158       5.025       4.879       4.709       4.596       4.557       4.506       4.448       4.387       4.326    
        4.267       4.214       4.161       4.109       4.055       3.998       3.955       3.928       3.899       3.870    
        3.841       3.813       3.786       3.762       3.739       3.716       3.693       3.670       3.646       3.622    
        3.596       3.570       3.543       3.514       3.492       3.479       3.464       3.450       3.436       3.423    
        3.402       3.374       3.348       3.323       3.299       3.276       3.253       3.231       3.210       3.190    
        3.172       3.155       3.132       3.103       3.076       3.052       3.028       3.004       2.981       2.959    
        2.938       2.920       2.904       2.892       2.855       2.793       2.736       2.681       2.628       2.574    
        2.520       2.465       2.408       2.350       2.287       2.218       2.135       2.041       1.939       1.834    
        1.727       1.619       1.513       1.408       1.305       1.203       1.101       1.000    
  10    10.00       9.750       9.499       9.247       8.993       8.736       8.474       8.206       7.930       7.641    
        7.333       6.987       6.691       6.497       6.284       6.057       5.822       5.588       5.391       5.277    
        5.175       5.065       4.939       4.782       4.649       4.595       4.531       4.463       4.394       4.325    
        4.263       4.213       4.165       4.117       4.067       4.013       3.968       3.938       3.906       3.874    
        3.842       3.811       3.783       3.760       3.739       3.717       3.695       3.672       3.648       3.624    
        3.599       3.574       3.548       3.519       3.496       3.481       3.465       3.449       3.433       3.418    
        3.395       3.368       3.343       3.319       3.295       3.272       3.249       3.226       3.204       3.183    
        3.162       3.143       3.118       3.089       3.063       3.039       3.015       2.992       2.969       2.947    
        2.926       2.907       2.889       2.874       2.837       2.778       2.723       2.671       2.619       2.568    
        2.518       2.468       2.418       2.367       2.315       2.256       2.175       2.073       1.967       1.858    
        1.749       1.640       1.532       1.424       1.318       1.211       1.106       1.000    
  11    10.00       9.754       9.508       9.260       9.011       8.759       8.503       8.243       7.977       7.703    
        7.420       7.127       6.830       6.584       6.342       6.091       5.824       5.526       5.324       5.266    
        5.188       5.094       4.987       4.867       4.734       4.641       4.559       4.480       4.399       4.316    
        4.252       4.211       4.168       4.123       4.077       4.031       3.986       3.949       3.914       3.878    
        3.843       3.806       3.777       3.759       3.739       3.718       3.696       3.674       3.650       3.626    
        3.602       3.577       3.552       3.527       3.503       3.484       3.465       3.447       3.429       3.410    
        3.387       3.363       3.340       3.316       3.292       3.269       3.246       3.223       3.200       3.177    
        3.154       3.131       3.105       3.080       3.055       3.031       3.007       2.984       2.962       2.940    
        2.919       2.898       2.879       2.859       2.822       2.768       2.716       2.665       2.614       2.565    
        2.517       2.469       2.423       2.377       2.332       2.287       2.207       2.094       1.982       1.871    
        1.761       1.651       1.542       1.433       1.324       1.216       1.108       1.000    
  12    10.00       9.757       9.513       9.268       9.022       8.773       8.522       8.267       8.007       7.742    
        7.471       7.196       6.924       6.665       6.408       6.141       5.854       5.535       5.340       5.283    
        5.205       5.111       5.006       4.894       4.779       4.678       4.586       4.497       4.408       4.318    
        4.252       4.212       4.170       4.127       4.083       4.040       3.998       3.958       3.921       3.883    
        3.845       3.805       3.776       3.759       3.740       3.719       3.698       3.675       3.652       3.628    
        3.603       3.579       3.554       3.530       3.506       3.485       3.465       3.446       3.426       3.406    
        3.384       3.361       3.338       3.314       3.291       3.267       3.244       3.220       3.197       3.174    
        3.150       3.126       3.102       3.077       3.053       3.029       3.005       2.982       2.960       2.938    
        2.916       2.896       2.876       2.856       2.819       2.766       2.714       2.663       2.613       2.564    
        2.516       2.469       2.422       2.377       2.332       2.288       2.209       2.096       1.984       1.873    
        1.762       1.652       1.543       1.434       1.325       1.217       1.108       1.000    
  13    10.00       9.760       9.519       9.277       9.035       8.790       8.544       8.294       8.042       7.786    
        7.526       7.265       7.003       6.745       6.483       6.210       5.914       5.583       5.381       5.319    
        5.236       5.139       5.033       4.922       4.812       4.707       4.608       4.513       4.419       4.324    
        4.256       4.216       4.174       4.132       4.089       4.047       4.006       3.966       3.927       3.888    
        3.849       3.808       3.778       3.761       3.742       3.722       3.700       3.678       3.654       3.630    
        3.605       3.580       3.555       3.531       3.508       3.486       3.465       3.445       3.424       3.403    
        3.381       3.359       3.336       3.312       3.289       3.265       3.242       3.218       3.195       3.171    
        3.147       3.123       3.099       3.074       3.050       3.026       3.002       2.979       2.957       2.935    
        2.913       2.893       2.872       2.853       2.816       2.764       2.712       2.661       2.611       2.562    
        2.514       2.467       2.421       2.376       2.331       2.288       2.210       2.097       1.985       1.874    
        1.763       1.653       1.544       1.434       1.326       1.217       1.108       1.000    
  14    10.00       9.763       9.526       9.288       9.049       8.810       8.568       8.325       8.080       7.833    
        7.583       7.332       7.080       6.828       6.570       6.300       6.007       5.670       5.450       5.377    
        5.282       5.175       5.064       4.950       4.838       4.731       4.628       4.529       4.431       4.333    
        4.262       4.221       4.179       4.137       4.095       4.054       4.013       3.973       3.934       3.894    
        3.854       3.812       3.782       3.765       3.746       3.725       3.704       3.681       3.657       3.633    
        3.608       3.582       3.557       3.531       3.508       3.486       3.465       3.444       3.423       3.401    
        3.379       3.357       3.334       3.311       3.287       3.264       3.240       3.216       3.192       3.168    
        3.144       3.120       3.095       3.071       3.047       3.023       2.999       2.976       2.953       2.931    
        2.910       2.889       2.868       2.849       2.812       2.760       2.708       2.658       2.608       2.559    
        2.512       2.465       2.419       2.374       2.330       2.287       2.209       2.097       1.985       1.874    
        1.764       1.654       1.544       1.435       1.326       1.217       1.109       1.000    
  15    10.00       9.767       9.533       9.299       9.065       8.830       8.595       8.358       8.120       7.882    
        7.642       7.400       7.158       6.915       6.668       6.414       6.142       5.821       5.557       5.454    
        5.337       5.217       5.096       4.977       4.861       4.750       4.644       4.542       4.444       4.346    
        4.271       4.227       4.184       4.142       4.100       4.059       4.019       3.980       3.941       3.901    
        3.860       3.818       3.787       3.770       3.751       3.730       3.708       3.685       3.661       3.636    
        3.610       3.584       3.557       3.531       3.506       3.484       3.464       3.443       3.422       3.400    
        3.378       3.356       3.333       3.309       3.286       3.262       3.238       3.214       3.190       3.166    
        3.141       3.117       3.092       3.068       3.043       3.019       2.996       2.972       2.950       2.927    
        2.906       2.884       2.864       2.844       2.808       2.756       2.704       2.653       2.604       2.556    
        2.508       2.462       2.416       2.372       2.328       2.285       2.208       2.096       1.985       1.874    
        1.764       1.654       1.544       1.435       1.326       1.217       1.109       1.000    
  16    10.00       9.769       9.537       9.306       9.074       8.842       8.609       8.376       8.143       7.909    
        7.674       7.438       7.201       6.964       6.725       6.484       6.240       5.988       5.722       5.545    
        5.397       5.259       5.127       5.001       4.880       4.765       4.656       4.553       4.457       4.368    
        4.293       4.239       4.192       4.148       4.108       4.068       4.030       3.993       3.954       3.915    
        3.874       3.831       3.801       3.782       3.762       3.741       3.718       3.695       3.669       3.643    
        3.616       3.588       3.558       3.526       3.500       3.482       3.463       3.442       3.421       3.399    
        3.377       3.355       3.331       3.308       3.284       3.261       3.236       3.212       3.188       3.163    
        3.138       3.114       3.089       3.064       3.040       3.016       2.992       2.968       2.945       2.923    
        2.901       2.880       2.859       2.839       2.803       2.750       2.699       2.648       2.599       2.551    
        2.504       2.458       2.413       2.369       2.325       2.283       2.206       2.095       1.984       1.873    
        1.763       1.653       1.544       1.435       1.326       1.217       1.109       1.000    
  17    10.00       9.769       9.538       9.307       9.075       8.844       8.612       8.380       8.147       7.914    
        7.680       7.445       7.209       6.972       6.736       6.499       6.262       6.027       5.801       5.611    
        5.445       5.294       5.153       5.019       4.893       4.773       4.661       4.557       4.462       4.378    
        4.306       4.248       4.199       4.156       4.117       4.081       4.046       4.011       3.975       3.937    
        3.897       3.853       3.822       3.802       3.781       3.759       3.735       3.710       3.683       3.655    
        3.626       3.595       3.562       3.526       3.499       3.482       3.463       3.442       3.421       3.399    
        3.377       3.354       3.331       3.307       3.283       3.259       3.235       3.210       3.185       3.161    
        3.136       3.111       3.086       3.061       3.036       3.012       2.987       2.964       2.940       2.918    
        2.895       2.874       2.853       2.833       2.797       2.744       2.693       2.642       2.593       2.545    
        2.498       2.452       2.408       2.364       2.322       2.280       2.204       2.093       1.982       1.872    
        1.762       1.653       1.543       1.434       1.326       1.217       1.108       1.000    
  18    10.00       9.769       9.539       9.308       9.077       8.846       8.615       8.384       8.152       7.920    
        7.686       7.452       7.217       6.981       6.746       6.513       6.283       6.059       5.846       5.654    
        5.480       5.321       5.172       5.031       4.899       4.775       4.659       4.553       4.458       4.375    
        4.305       4.248       4.200       4.160       4.124       4.092       4.062       4.031       3.998       3.962    
        3.922       3.878       3.845       3.824       3.802       3.778       3.753       3.726       3.698       3.669    
        3.637       3.604       3.568       3.530       3.501       3.483       3.464       3.443       3.421       3.399    
        3.376       3.354       3.330       3.307       3.283       3.258       3.234       3.209       3.183       3.158    
        3.133       3.107       3.082       3.057       3.032       3.007       2.983       2.959       2.935       2.912    
        2.890       2.868       2.847       2.826       2.790       2.737       2.685       2.635       2.586       2.538    
        2.491       2.446       2.402       2.360       2.318       2.277       2.201       2.091       1.981       1.871    
        1.761       1.652       1.543       1.434       1.325       1.217       1.108       1.000    
  19    10.00       9.770       9.540       9.309       9.079       8.849       8.618       8.388       8.157       7.926    
        7.694       7.461       7.225       6.989       6.755       6.524       6.298       6.079       5.871       5.679    
        5.502       5.337       5.182       5.036       4.898       4.768       4.648       4.539       4.443       4.361    
        4.293       4.239       4.195       4.159       4.128       4.101       4.077       4.052       4.023       3.990    
        3.952       3.906       3.870       3.847       3.823       3.798       3.772       3.744       3.714       3.684    
        3.651       3.616       3.578       3.536       3.505       3.486       3.466       3.445       3.422       3.400    
        3.377       3.354       3.330       3.306       3.282       3.258       3.233       3.207       3.182       3.156    
        3.130       3.104       3.078       3.053       3.028       3.002       2.978       2.953       2.929       2.906    
        2.883       2.861       2.839       2.819       2.782       2.729       2.677       2.626       2.577       2.530    
        2.484       2.439       2.396       2.354       2.313       2.273       2.198       2.089       1.979       1.869    
        1.760       1.650       1.542       1.433       1.324       1.216       1.108       1.000    
  20    10.00       9.770       9.541       9.311       9.081       8.851       8.622       8.392       8.163       7.933    
        7.703       7.472       7.233       6.996       6.762       6.531       6.306       6.088       5.882       5.691    
        5.512       5.344       5.184       5.033       4.889       4.752       4.626       4.512       4.414       4.332    
        4.269       4.220       4.182       4.152       4.128       4.109       4.094       4.077       4.053       4.024    
        3.988       3.942       3.898       3.872       3.846       3.820       3.792       3.763       3.732       3.700    
        3.666       3.630       3.591       3.547       3.511       3.491       3.470       3.447       3.424       3.400    
        3.377       3.354       3.331       3.307       3.282       3.257       3.232       3.206       3.180       3.154    
        3.127       3.101       3.075       3.049       3.023       2.997       2.972       2.947       2.923       2.899    
        2.876       2.853       2.831       2.810       2.773       2.719       2.667       2.616       2.567       2.520    
        2.474       2.430       2.388       2.347       2.308       2.270       2.196       2.087       1.977       1.867    
        1.758       1.649       1.540       1.432       1.324       1.216       1.108       1.000    
  21    10.00       9.773       9.546       9.320       9.094       8.868       8.644       8.420       8.199       7.982    
        7.773       7.586       7.350       7.073       6.820       6.574       6.328       6.066       5.853       5.691    
        5.515       5.335      -999.0      -999.0      -999.0      -999.0      -999.0      -999.0      -999.0      -999.0    
       -999.0      -999.0      -999.0      -999.0      -999.0      -999.0      -999.0      -999.0       4.089       4.065    
        4.033       3.995       3.951       3.919       3.890       3.861       3.831       3.800       3.768       3.734    
        3.699       3.662       3.622       3.581       3.543       3.515       3.488       3.461       3.433       3.402    
        3.376       3.355       3.332       3.308       3.283       3.257       3.231       3.204       3.177       3.150    
        3.122       3.095       3.067       3.040       3.014       2.987       2.961       2.936       2.910       2.885    
        2.861       2.837       2.814       2.792       2.754       2.699       2.646       2.596       2.547       2.500    
        2.454       2.411       2.370       2.332       2.297       2.269       2.196       2.077       1.964       1.854    
        1.745       1.637       1.530       1.424       1.317       1.211       1.106       1.000    
  22    10.00       9.778       9.557       9.336       9.117       8.898       8.682       8.470       8.263       8.065    
        7.882       7.727       7.500       7.201       6.927       6.659       6.383       6.083       5.857       5.704    
        5.523       5.321      -999.0      -999.0      -999.0      -999.0      -999.0      -999.0      -999.0      -999.0    
       -999.0      -999.0      -999.0      -999.0      -999.0      -999.0      -999.0      -999.0       4.132       4.112    
        4.085       4.053       4.018       3.985       3.953       3.921       3.889       3.856       3.821       3.785    
        3.748       3.709       3.670       3.629       3.591       3.555       3.521       3.487       3.450       3.411    
        3.381       3.360       3.336       3.311       3.285       3.258       3.230       3.202       3.173       3.144    
        3.115       3.085       3.056       3.028       3.000       2.972       2.945       2.918       2.891       2.865    
        2.838       2.813       2.788       2.764       2.724       2.668       2.615       2.564       2.515       2.468    
        2.423       2.381       2.341       2.305       2.274       2.251       2.178       2.054       1.939       1.828    
        1.721       1.615       1.511       1.408       1.305       1.203       1.102       1.000    
  23    10.00       9.783       9.567       9.352       9.138       8.926       8.718       8.514       8.318       8.133    
        7.965       7.824       7.605       7.306       7.027       6.751       6.462       6.142       5.902       5.745    
        5.551       5.326      -999.0      -999.0      -999.0      -999.0      -999.0      -999.0      -999.0      -999.0    
       -999.0      -999.0      -999.0      -999.0      -999.0      -999.0      -999.0      -999.0       4.181       4.165    
        4.142       4.113       4.082       4.049       4.016       3.983       3.948       3.912       3.876       3.838    
        3.799       3.758       3.717       3.676       3.635       3.594       3.555       3.514       3.471       3.424    
        3.389       3.367       3.342       3.315       3.288       3.259       3.230       3.200       3.169       3.138    
        3.107       3.075       3.044       3.015       2.985       2.957       2.928       2.900       2.872       2.843    
        2.815       2.787       2.760       2.735       2.693       2.635       2.581       2.529       2.481       2.435    
        2.390       2.349       2.310       2.274       2.245       2.223       2.149       2.024       1.909       1.799    
        1.694       1.591       1.491       1.391       1.293       1.195       1.097       1.000    
  24    10.00       9.788       9.577       9.366       9.158       8.951       8.749       8.552       8.363       8.185    
        8.023       7.887       7.677       7.393       7.125       6.856       6.569       6.243       5.989       5.819    
        5.610       5.362      -999.0      -999.0      -999.0      -999.0      -999.0      -999.0      -999.0      -999.0    
       -999.0      -999.0      -999.0      -999.0      -999.0      -999.0      -999.0      -999.0       4.238       4.224    
        4.204       4.177       4.147       4.114       4.080       4.045       4.008       3.970       3.931       3.891    
        3.850       3.808       3.765       3.721       3.678       3.634       3.589       3.543       3.495       3.442    
        3.402       3.376       3.349       3.321       3.291       3.261       3.230       3.198       3.166       3.133    
        3.099       3.065       3.032       3.001       2.971       2.941       2.912       2.882       2.852       2.822    
        2.792       2.762       2.732       2.703       2.657       2.598       2.544       2.493       2.445       2.399    
        2.355       2.313       2.274       2.238       2.207       2.184       2.109       1.985       1.872       1.766    
        1.665       1.566       1.470       1.374       1.280       1.186       1.093       1.000    
  25    10.00       9.792       9.585       9.379       9.174       8.973       8.775       8.582       8.397       8.220    
        8.058       7.916       7.717       7.464       7.223       6.977       6.712       6.402       6.121       5.930    
        5.704       5.440      -999.0      -999.0      -999.0      -999.0      -999.0      -999.0      -999.0      -999.0    
       -999.0      -999.0      -999.0      -999.0      -999.0      -999.0      -999.0      -999.0       4.302       4.291    
        4.271       4.245       4.214       4.181       4.145       4.108       4.069       4.029       3.988       3.946    
        3.903       3.859       3.814       3.768       3.721       3.673       3.625       3.575       3.523       3.465    
        3.417       3.388       3.357       3.327       3.295       3.263       3.231       3.198       3.163       3.128    
        3.092       3.055       3.017       2.985       2.956       2.926       2.895       2.864       2.833       2.801    
        2.769       2.735       2.702       2.668       2.615       2.556       2.503       2.454       2.407       2.361    
        2.318       2.276       2.235       2.197       2.163       2.134       2.055       1.936       1.830       1.729    
        1.633       1.539       1.447       1.356       1.267       1.177       1.089       1.000    
  26    10.00       9.796       9.592       9.390       9.189       8.991       8.796       8.606       8.421       8.243    
        8.072       7.902       7.711       7.504       7.291       7.069       6.834       6.581       6.307       6.074    
        5.833       5.563      -999.0      -999.0      -999.0      -999.0      -999.0      -999.0      -999.0      -999.0    
       -999.0      -999.0      -999.0      -999.0      -999.0      -999.0      -999.0      -999.0       4.376       4.364    
        4.344       4.317       4.285       4.249       4.212       4.172       4.131       4.089       4.046       4.002    
        3.957       3.910       3.863       3.814       3.764       3.713       3.662       3.609       3.556       3.501    
        3.449       3.410       3.374       3.339       3.304       3.269       3.234       3.198       3.160       3.122    
        3.081       3.035       2.996       2.969       2.940       2.910       2.879       2.847       2.815       2.781    
        2.746       2.709       2.671       2.629       2.575       2.523       2.473       2.425       2.379       2.335    
        2.291       2.249       2.207       2.167       2.128       2.090       2.011       1.904       1.803       1.707    
        1.614       1.523       1.434       1.346       1.259       1.172       1.086       1.000    
  27    10.00       9.799       9.598       9.399       9.201       9.005       8.813       8.624       8.440       8.261    
        8.084       7.908       7.723       7.530       7.331       7.125       6.911       6.686       6.453       6.226    
        5.990       5.729      -999.0      -999.0      -999.0      -999.0      -999.0      -999.0      -999.0      -999.0    
       -999.0      -999.0      -999.0      -999.0      -999.0      -999.0      -999.0      -999.0       4.460       4.446    
        4.423       4.393       4.358       4.320       4.280       4.238       4.194       4.150       4.104       4.058    
        4.011       3.963       3.914       3.862       3.809       3.755       3.699       3.644       3.589       3.535    
        3.484       3.439       3.397       3.357       3.317       3.278       3.239       3.199       3.157       3.114    
        3.069       3.019       2.980       2.955       2.926       2.896       2.864       2.831       2.797       2.761    
        2.724       2.686       2.644       2.600       2.551       2.503       2.455       2.408       2.363       2.319    
        2.276       2.233       2.191       2.150       2.109       2.069       1.996       1.893       1.795       1.701    
        1.609       1.519       1.431       1.344       1.257       1.171       1.086       1.000    
  28    10.00       9.801       9.603       9.406       9.211       9.017       8.826       8.638       8.454       8.274    
        8.097       7.921       7.743       7.562       7.377       7.189       6.997       6.798       6.594       6.387    
        6.169       5.931      -999.0      -999.0      -999.0      -999.0      -999.0      -999.0      -999.0      -999.0    
       -999.0      -999.0      -999.0      -999.0      -999.0      -999.0      -999.0      -999.0       4.557       4.537    
        4.508       4.474       4.435       4.394       4.350       4.305       4.258       4.211       4.164       4.116    
        4.067       4.017       3.966       3.912       3.855       3.796       3.737       3.679       3.622       3.566    
        3.514       3.465       3.418       3.374       3.330       3.287       3.244       3.201       3.156       3.110    
        3.061       3.008       2.968       2.943       2.914       2.883       2.850       2.816       2.780       2.743    
        2.705       2.664       2.621       2.576       2.528       2.481       2.435       2.390       2.346       2.303    
        2.259       2.216       2.174       2.131       2.090       2.049       1.978       1.879       1.784       1.692    
        1.602       1.514       1.427       1.341       1.255       1.170       1.085       1.000    
  29    10.00       9.804       9.608       9.413       9.219       9.026       8.836       8.649       8.465       8.285    
        8.109       7.936       7.765       7.596       7.427       7.259       7.088       6.915       6.738       6.557    
        6.367       6.163      -999.0      -999.0      -999.0      -999.0      -999.0      -999.0      -999.0      -999.0    
       -999.0      -999.0      -999.0      -999.0      -999.0      -999.0      -999.0      -999.0       4.664       4.635    
        4.599       4.559       4.515       4.469       4.421       4.373       4.323       4.273       4.224       4.174    
        4.124       4.073       4.021       3.965       3.903       3.838       3.774       3.712       3.652       3.595    
        3.540       3.488       3.438       3.390       3.343       3.297       3.250       3.204       3.156       3.107    
        3.056       3.002       2.961       2.934       2.904       2.872       2.838       2.802       2.765       2.727    
        2.687       2.644       2.600       2.553       2.505       2.459       2.415       2.372       2.329       2.286    
        2.243       2.200       2.156       2.113       2.069       2.026       1.956       1.860       1.769       1.680    
        1.593       1.507       1.422       1.337       1.253       1.168       1.084       1.000    
  30    10.00       9.806       9.611       9.418       9.225       9.033       8.844       8.656       8.472       8.293    
        8.118       7.949       7.786       7.630       7.478       7.329       7.182       7.036       6.887       6.736    
        6.579       6.413      -999.0      -999.0      -999.0      -999.0      -999.0      -999.0      -999.0      -999.0    
       -999.0      -999.0      -999.0      -999.0      -999.0      -999.0      -999.0      -999.0       4.780       4.739    
        4.694       4.647       4.597       4.546       4.494       4.441       4.388       4.336       4.283       4.232    
        4.181       4.130       4.079       4.024       3.952       3.879       3.810       3.744       3.681       3.621    
        3.564       3.509       3.456       3.405       3.355       3.306       3.257       3.207       3.158       3.107    
        3.055       3.000       2.957       2.928       2.896       2.862       2.827       2.790       2.752       2.712    
        2.671       2.627       2.581       2.531       2.479       2.435       2.394       2.352       2.311       2.269    
        2.227       2.183       2.139       2.094       2.047       2.000       1.927       1.837       1.752       1.668    
        1.584       1.500       1.417       1.333       1.250       1.167       1.083       1.000    
  31    10.00       9.806       9.613       9.420       9.227       9.036       8.846       8.659       8.474       8.294    
        8.120       7.953       7.795       7.645       7.503       7.367       7.233       7.102       6.970       6.836    
        6.698       6.555       6.406       6.249       6.135       6.054       5.956       5.842       5.707       5.542    
        5.355       5.234       5.155       5.096       5.048       5.003       4.958       4.911       4.863       4.813    
        4.762       4.708       4.654       4.599       4.544       4.488       4.433       4.378       4.324       4.271    
        4.220       4.170       4.122       4.076       4.003       3.918       3.842       3.772       3.707       3.645    
        3.585       3.528       3.473       3.419       3.366       3.315       3.263       3.212       3.160       3.109    
        3.057       3.006       2.960       2.922       2.885       2.847       2.808       2.769       2.729       2.688    
        2.645       2.601       2.552       2.495       2.444       2.410       2.372       2.334       2.294       2.253    
        2.211       2.168       2.123       2.076       2.025       1.968       1.896       1.818       1.739       1.658    
        1.577       1.495       1.413       1.330       1.248       1.165       1.083       1.000    
  32    10.00       9.806       9.613       9.420       9.227       9.035       8.845       8.656       8.470       8.289    
        8.113       7.946       7.788       7.641       7.502       7.369       7.240       7.112       6.984       6.855    
        6.722       6.583       6.438       6.284       6.169       6.091       5.998       5.890       5.767       5.629    
        5.486       5.368       5.275       5.199       5.134       5.076       5.020       4.965       4.910       4.855    
        4.800       4.743       4.686       4.629       4.571       4.514       4.457       4.401       4.345       4.292    
        4.239       4.189       4.142       4.100       4.033       3.946       3.869       3.797       3.729       3.665    
        3.604       3.545       3.488       3.432       3.377       3.323       3.269       3.216       3.163       3.110    
        3.057       3.006       2.958       2.913       2.869       2.826       2.783       2.740       2.697       2.654    
        2.611       2.566       2.516       2.461       2.416       2.386       2.352       2.316       2.277       2.238    
        2.197       2.154       2.109       2.061       2.009       1.951       1.884       1.810       1.733       1.654    
        1.574       1.493       1.411       1.329       1.247       1.165       1.082       1.000    
  33    10.00       9.806       9.612       9.419       9.226       9.033       8.841       8.651       8.462       8.278    
        8.099       7.929       7.772       7.628       7.495       7.368       7.245       7.123       7.001       6.877    
        6.750       6.618       6.480       6.330       6.218       6.142       6.053       5.952       5.840       5.719    
        5.594       5.479       5.379       5.292       5.215       5.146       5.081       5.019       4.958       4.898    
        4.838       4.778       4.718       4.658       4.598       4.539       4.480       4.422       4.365       4.310    
        4.257       4.206       4.159       4.117       4.053       3.967       3.889       3.817       3.749       3.684    
        3.621       3.561       3.502       3.444       3.387       3.331       3.276       3.220       3.166       3.111    
        3.057       3.004       2.952       2.903       2.854       2.805       2.757       2.710       2.664       2.621    
        2.578       2.534       2.487       2.435       2.394       2.366       2.334       2.300       2.263       2.224    
        2.184       2.142       2.098       2.051       2.000       1.942       1.877       1.805       1.730       1.651    
        1.572       1.491       1.410       1.328       1.246       1.164       1.082       1.000    
  34    10.00       9.806       9.612       9.418       9.224       9.030       8.836       8.643       8.451       8.261    
        8.076       7.900       7.742       7.606       7.482       7.364       7.248       7.133       7.018       6.902    
        6.783       6.660       6.531       6.390       6.280       6.205       6.119       6.025       5.923       5.813    
        5.693       5.576       5.470       5.375       5.289       5.212       5.140       5.071       5.005       4.941    
        4.877       4.814       4.751       4.688       4.625       4.563       4.502       4.442       4.384       4.327    
        4.272       4.220       4.171       4.128       4.064       3.981       3.905       3.833       3.765       3.700    
        3.636       3.575       3.514       3.455       3.396       3.339       3.281       3.224       3.168       3.111    
        3.056       3.000       2.945       2.891       2.838       2.784       2.730       2.678       2.630       2.588    
        2.547       2.506       2.463       2.415       2.378       2.351       2.319       2.285       2.249       2.212    
        2.172       2.132       2.089       2.044       1.996       1.941       1.876       1.805       1.728       1.650    
        1.570       1.489       1.408       1.327       1.245       1.164       1.082       1.000    
  35    10.00       9.806       9.611       9.417       9.222       9.027       8.831       8.635       8.438       8.241    
        8.044       7.853       7.692       7.573       7.464       7.357       7.251       7.144       7.037       6.929    
        6.820       6.709       6.593       6.467       6.358       6.278       6.193       6.105       6.015       5.917    
        5.789       5.664       5.550       5.448       5.356       5.273       5.195       5.122       5.051       4.983    
        4.916       4.849       4.783       4.717       4.652       4.587       4.524       4.461       4.401       4.342    
        4.284       4.230       4.178       4.131       4.066       3.988       3.916       3.847       3.779       3.714    
        3.650       3.587       3.526       3.465       3.405       3.346       3.287       3.228       3.170       3.112    
        3.054       2.996       2.938       2.880       2.822       2.762       2.702       2.643       2.590       2.552    
        2.516       2.480       2.443       2.402       2.367       2.339       2.307       2.273       2.238       2.201    
        2.163       2.124       2.083       2.041       1.997       1.948       1.883       1.808       1.729       1.650    
        1.569       1.488       1.407       1.326       1.245       1.163       1.082       1.000    
  36    10.00       9.805       9.611       9.416       9.221       9.025       8.828       8.629       8.429       8.226    
        8.018       7.802       7.641       7.549       7.452       7.353       7.253       7.151       7.049       6.946    
        6.842       6.738       6.634       6.529       6.424       6.331       6.245       6.161       6.081       6.006    
        5.882       5.740       5.619       5.512       5.416       5.328       5.246       5.169       5.095       5.024    
        4.953       4.884       4.814       4.745       4.677       4.610       4.544       4.479       4.416       4.355    
        4.295       4.237       4.180       4.122       4.058       3.990       3.921       3.854       3.788       3.723    
        3.659       3.596       3.533       3.472       3.411       3.350       3.290       3.230       3.171       3.112    
        3.052       2.993       2.933       2.872       2.811       2.748       2.683       2.613       2.560       2.530    
        2.499       2.466       2.433       2.399       2.366       2.334       2.300       2.266       2.230       2.194    
        2.157       2.119       2.080       2.041       2.002       1.963       1.899       1.814       1.732       1.650    
        1.569       1.488       1.407       1.325       1.244       1.163       1.081       1.000    
  37    10.00       9.805       9.611       9.416       9.220       9.024       8.827       8.628       8.427       8.222    
        8.012       7.793       7.636       7.546       7.452       7.354       7.254       7.153       7.052       6.950    
        6.848       6.746       6.645       6.544       6.446       6.355       6.269       6.188       6.112       6.044    
        5.936       5.797       5.675       5.566       5.467       5.377       5.292       5.213       5.137       5.063    
        4.991       4.918       4.846       4.773       4.702       4.631       4.563       4.495       4.430       4.366    
        4.304       4.243       4.182       4.121       4.056       3.990       3.924       3.857       3.792       3.727    
        3.663       3.599       3.537       3.475       3.413       3.352       3.292       3.231       3.171       3.111    
        3.051       2.991       2.931       2.869       2.807       2.742       2.676       2.606       2.555       2.526    
        2.496       2.464       2.431       2.398       2.365       2.331       2.298       2.263       2.227       2.191    
        2.154       2.117       2.079       2.041       2.003       1.967       1.905       1.818       1.733       1.651    
        1.569       1.487       1.406       1.325       1.243       1.162       1.081       1.000    
  38    10.00       9.806       9.611       9.416       9.221       9.025       8.828       8.630       8.429       8.224    
        8.013       7.794       7.639       7.549       7.454       7.356       7.257       7.156       7.055       6.954    
        6.853       6.753       6.654       6.557       6.462       6.372       6.288       6.209       6.136       6.072    
        5.971       5.838       5.718       5.610       5.511       5.420       5.335       5.254       5.177       5.102    
        5.028       4.953       4.877       4.800       4.725       4.651       4.580       4.510       4.442       4.376    
        4.312       4.248       4.185       4.122       4.057       3.991       3.926       3.860       3.794       3.730    
        3.666       3.602       3.539       3.477       3.415       3.354       3.293       3.232       3.172       3.111    
        3.051       2.990       2.929       2.867       2.804       2.739       2.672       2.602       2.553       2.524    
        2.494       2.462       2.430       2.397       2.364       2.330       2.296       2.261       2.225       2.189    
        2.152       2.115       2.078       2.040       2.004       1.969       1.907       1.819       1.734       1.650    
        1.568       1.486       1.405       1.324       1.243       1.162       1.081       1.000    
  39    10.00       9.806       9.612       9.417       9.222       9.027       8.831       8.634       8.434       8.231    
        8.023       7.806       7.648       7.556       7.460       7.360       7.260       7.160       7.059       6.958    
        6.858       6.759       6.662       6.566       6.474       6.385       6.302       6.224       6.152       6.089    
        5.993       5.866       5.750       5.645       5.548       5.457       5.372       5.292       5.215       5.140    
        5.065       4.989       4.908       4.826       4.747       4.670       4.595       4.523       4.453       4.385    
        4.318       4.253       4.188       4.124       4.058       3.993       3.927       3.862       3.797       3.732    
        3.668       3.604       3.541       3.479       3.417       3.355       3.294       3.233       3.172       3.112    
        3.051       2.990       2.928       2.866       2.803       2.738       2.671       2.602       2.552       2.523    
        2.493       2.462       2.429       2.396       2.363       2.329       2.294       2.259       2.224       2.187    
        2.151       2.114       2.076       2.039       2.003       1.967       1.905       1.817       1.732       1.649    
        1.567       1.485       1.404       1.323       1.242       1.161       1.081       1.000    
  40    10.00       9.806       9.612       9.418       9.224       9.030       8.835       8.639       8.443       8.244    
        8.042       7.830       7.666       7.568       7.467       7.366       7.264       7.163       7.062       6.962    
        6.862       6.764       6.668       6.573       6.482       6.394       6.310       6.232       6.160       6.096    
        6.001       5.882       5.773       5.672       5.578       5.489       5.405       5.326       5.251       5.177    
        5.105       5.030       4.939       4.850       4.766       4.685       4.608       4.534       4.462       4.392    
        4.324       4.257       4.191       4.126       4.060       3.995       3.929       3.864       3.799       3.734    
        3.670       3.606       3.543       3.480       3.418       3.356       3.295       3.234       3.173       3.112    
        3.051       2.990       2.928       2.866       2.803       2.739       2.673       2.605       2.554       2.524    
        2.493       2.462       2.429       2.396       2.362       2.328       2.294       2.258       2.223       2.186    
        2.150       2.112       2.075       2.037       2.000       1.964       1.900       1.813       1.729       1.646    
        1.565       1.484       1.403       1.322       1.241       1.161       1.080       1.000    
  41    10.00       9.806       9.613       9.419       9.226       9.033       8.839       8.646       8.453       8.260    
        8.069       7.884       7.719       7.595       7.483       7.376       7.271       7.169       7.067       6.967    
        6.868       6.770       6.675       6.581       6.490       6.402       6.318       6.237       6.160       6.082    
        5.990       5.889       5.789       5.693       5.602       5.516       5.435       5.357       5.284       5.214    
        5.147       5.085       4.993       4.888       4.795       4.709       4.627       4.549       4.475       4.403    
        4.333       4.264       4.197       4.130       4.064       3.998       3.932       3.867       3.802       3.737    
        3.672       3.609       3.545       3.482       3.420       3.358       3.296       3.235       3.173       3.112    
        3.051       2.990       2.929       2.867       2.805       2.743       2.681       2.621       2.570       2.533    
        2.498       2.465       2.431       2.397       2.362       2.328       2.293       2.257       2.221       2.184    
        2.146       2.108       2.069       2.029       1.987       1.940       1.876       1.800       1.720       1.641    
        1.560       1.480       1.400       1.320       1.240       1.160       1.080       1.000    
  42    10.00       9.807       9.614       9.421       9.228       9.035       8.843       8.652       8.462       8.275    
        8.092       7.917       7.759       7.623       7.501       7.388       7.280       7.176       7.074       6.973    
        6.875       6.778       6.683       6.590       6.499       6.411       6.325       6.242       6.160       6.076    
        5.987       5.894       5.801       5.710       5.622       5.539       5.460       5.385       5.314       5.247    
        5.185       5.129       5.043       4.931       4.830       4.738       4.651       4.569       4.491       4.416    
        4.343       4.273       4.204       4.136       4.069       4.002       3.936       3.870       3.805       3.740    
        3.676       3.612       3.548       3.485       3.422       3.359       3.297       3.236       3.174       3.113    
        3.052       2.991       2.930       2.869       2.809       2.750       2.692       2.637       2.587       2.545    
        2.507       2.470       2.434       2.399       2.363       2.328       2.292       2.255       2.218       2.180    
        2.141       2.101       2.059       2.015       1.968       1.916       1.854       1.783       1.709       1.632    
        1.554       1.475       1.396       1.317       1.238       1.159       1.079       1.000    
  43    10.00       9.807       9.614       9.422       9.230       9.038       8.847       8.657       8.470       8.285    
        8.106       7.935       7.777       7.637       7.512       7.396       7.286       7.181       7.078       6.978    
        6.880       6.784       6.689       6.597       6.506       6.417       6.331       6.246       6.161       6.076    
        5.988       5.899       5.810       5.723       5.639       5.558       5.481       5.409       5.340       5.277    
        5.218       5.164       5.079       4.964       4.859       4.761       4.670       4.585       4.504       4.427    
        4.352       4.280       4.210       4.141       4.073       4.006       3.940       3.874       3.809       3.744    
        3.679       3.614       3.550       3.486       3.423       3.361       3.298       3.236       3.175       3.113    
        3.052       2.991       2.931       2.871       2.812       2.755       2.699       2.647       2.598       2.554    
        2.513       2.474       2.437       2.400       2.364       2.328       2.291       2.254       2.216       2.177    
        2.137       2.095       2.051       2.005       1.955       1.900       1.839       1.771       1.700       1.625    
        1.549       1.471       1.393       1.314       1.236       1.157       1.079       1.000    
  44    10.00       9.807       9.615       9.423       9.231       9.040       8.849       8.661       8.474       8.291    
        8.113       7.941       7.779       7.639       7.513       7.397       7.288       7.183       7.081       6.981    
        6.884       6.788       6.694       6.601       6.511       6.422       6.335       6.249       6.163       6.077    
        5.991       5.904       5.818       5.734       5.652       5.573       5.499       5.428       5.362       5.301    
        5.245       5.193       5.106       4.988       4.879       4.778       4.685       4.597       4.514       4.435    
        4.359       4.286       4.214       4.145       4.076       4.009       3.943       3.877       3.812       3.747    
        3.681       3.616       3.552       3.488       3.424       3.362       3.299       3.237       3.175       3.113    
        3.052       2.991       2.931       2.872       2.814       2.758       2.704       2.653       2.604       2.560    
        2.518       2.478       2.439       2.402       2.365       2.328       2.291       2.253       2.215       2.175    
        2.134       2.091       2.046       1.998       1.946       1.890       1.829       1.763       1.693       1.620    
        1.544       1.467       1.389       1.311       1.234       1.156       1.078       1.000    
  45    10.00       9.807       9.615       9.423       9.231       9.040       8.850       8.662       8.476       8.293    
        8.113       7.936       7.761       7.625       7.505       7.393       7.285       7.182       7.081       6.983    
        6.886       6.790       6.697       6.605       6.514       6.425       6.338       6.251       6.165       6.079    
        5.994       5.908       5.824       5.742       5.662       5.585       5.512       5.444       5.380       5.321    
        5.267       5.218       5.125       5.003       4.892       4.789       4.694       4.604       4.520       4.440    
        4.363       4.289       4.217       4.147       4.079       4.011       3.945       3.880       3.815       3.750    
        3.684       3.618       3.553       3.489       3.425       3.362       3.299       3.237       3.175       3.113    
        3.052       2.990       2.930       2.871       2.815       2.760       2.706       2.656       2.608       2.563    
        2.520       2.480       2.441       2.403       2.365       2.328       2.291       2.253       2.215       2.175    
        2.133       2.089       2.043       1.995       1.942       1.886       1.824       1.759       1.689       1.616    
        1.541       1.464       1.385       1.308       1.232       1.155       1.077       1.000    
  46    10.00       9.807       9.613       9.420       9.227       9.034       8.842       8.649       8.456       8.262    
        8.061       7.836       7.661       7.575       7.476       7.375       7.275       7.176       7.078       6.982    
        6.886       6.792       6.699       6.608       6.517       6.429       6.341       6.254       6.168       6.083    
        5.999       5.915       5.832       5.752       5.674       5.600       5.529       5.464       5.403       5.349    
        5.302       5.265       5.173       5.038       4.920       4.812       4.713       4.621       4.534       4.452    
        4.374       4.298       4.226       4.156       4.087       4.021       3.956       3.893       3.834       3.781    
        3.714       3.636       3.565       3.497       3.430       3.365       3.300       3.236       3.171       3.106    
        3.039       2.967       2.907       2.860       2.809       2.757       2.707       2.658       2.611       2.566    
        2.524       2.483       2.444       2.406       2.368       2.331       2.295       2.259       2.223       2.191    
        2.148       2.095       2.043       1.991       1.936       1.877       1.814       1.747       1.676       1.600    
        1.519       1.429       1.351       1.289       1.220       1.147       1.074       1.000    
  47    10.00       9.805       9.611       9.415       9.220       9.023       8.825       8.624       8.420       8.208    
        7.983       7.732       7.572       7.513       7.435       7.349       7.258       7.166       7.073       6.979    
        6.886       6.793       6.702       6.611       6.521       6.432       6.345       6.258       6.173       6.088    
        6.005       5.923       5.842       5.764       5.689       5.617       5.550       5.488       5.432       5.383    
        5.342       5.313       5.226       5.086       4.961       4.848       4.743       4.647       4.556       4.471    
        4.390       4.313       4.240       4.169       4.101       4.036       3.974       3.915       3.862       3.817    
        3.751       3.663       3.584       3.510       3.439       3.369       3.301       3.233       3.164       3.094    
        3.020       2.941       2.881       2.843       2.799       2.752       2.705       2.659       2.614       2.570    
        2.528       2.488       2.448       2.410       2.373       2.337       2.302       2.268       2.236       2.208    
        2.164       2.103       2.045       1.987       1.927       1.865       1.798       1.728       1.653       1.572    
        1.485       1.386       1.311       1.260       1.200       1.136       1.068       1.000    
  48    10.00       9.804       9.608       9.411       9.213       9.013       8.810       8.604       8.390       8.167    
        7.930       7.670       7.515       7.468       7.403       7.326       7.244       7.157       7.067       6.976    
        6.885       6.794       6.703       6.613       6.524       6.435       6.348       6.262       6.177       6.093    
        6.010       5.929       5.850       5.773       5.700       5.631       5.566       5.506       5.453       5.408    
        5.371       5.346       5.261       5.120       4.991       4.874       4.766       4.666       4.573       4.486    
        4.403       4.325       4.250       4.180       4.112       4.048       3.988       3.933       3.883       3.842    
        3.775       3.683       3.599       3.521       3.446       3.373       3.302       3.230       3.158       3.084    
        3.007       2.924       2.865       2.830       2.790       2.748       2.704       2.660       2.616       2.573    
        2.531       2.491       2.452       2.414       2.377       2.341       2.307       2.275       2.245       2.219    
        2.173       2.109       2.046       1.984       1.921       1.856       1.787       1.714       1.636       1.552    
        1.460       1.359       1.286       1.240       1.186       1.126       1.064       1.000    
  49    10.00       9.803       9.606       9.408       9.208       9.006       8.800       8.589       8.370       8.140    
        7.896       7.634       7.481       7.439       7.381       7.311       7.233       7.150       7.063       6.974    
        6.884       6.794       6.704       6.614       6.525       6.437       6.350       6.264       6.179       6.095    
        6.013       5.933       5.855       5.780       5.708       5.640       5.577       5.519       5.468       5.425    
        5.390       5.366       5.283       5.141       5.011       4.892       4.782       4.680       4.585       4.496    
        4.412       4.333       4.258       4.187       4.120       4.057       3.998       3.944       3.897       3.856    
        3.790       3.696       3.609       3.528       3.451       3.376       3.302       3.229       3.155       3.078    
        2.999       2.915       2.856       2.823       2.785       2.745       2.702       2.659       2.617       2.575    
        2.533       2.493       2.454       2.416       2.380       2.345       2.311       2.280       2.251       2.225    
        2.179       2.112       2.047       1.983       1.917       1.850       1.779       1.704       1.624       1.538    
        1.445       1.343       1.270       1.226       1.176       1.120       1.061       1.000    
  50    10.00       9.803       9.605       9.406       9.205       9.002       8.794       8.581       8.360       8.127    
        7.881       7.618       7.465       7.425       7.370       7.303       7.227       7.146       7.060       6.973    
        6.884       6.794       6.704       6.615       6.526       6.438       6.351       6.265       6.180       6.097    
        6.015       5.935       5.858       5.783       5.712       5.644       5.582       5.525       5.475       5.433    
        5.400       5.376       5.294       5.152       5.021       4.901       4.789       4.686       4.591       4.501    
        4.417       4.337       4.262       4.191       4.124       4.061       4.003       3.950       3.903       3.864    
        3.797       3.702       3.614       3.532       3.453       3.377       3.302       3.228       3.153       3.075    
        2.995       2.910       2.852       2.819       2.782       2.743       2.702       2.659       2.617       2.575    
        2.534       2.494       2.455       2.418       2.381       2.346       2.313       2.282       2.254       2.228    
        2.182       2.114       2.048       1.982       1.915       1.847       1.775       1.699       1.618       1.531    
        1.437       1.335       1.263       1.220       1.171       1.117       1.059       1.000    

 HEAD WILL BE SAVED ON UNIT   76 AT END OF TIME STEP   1, STRESS PERIOD    1
1
  VOLUMETRIC BUDGET FOR ENTIRE MODEL AT END OF TIME STEP  1 IN STRESS PERIOD   1
  ------------------------------------------------------------------------------

     CUMULATIVE VOLUMES      L**3       RATES FOR THIS TIME STEP      L**3/T
     ------------------                 ------------------------

           IN:                                      IN:
           ---                                      ---
             STORAGE =           0.0000               STORAGE =           0.0000
       CONSTANT HEAD =       1.2110E-02         CONSTANT HEAD =       1.2110E-02
               WELLS =           0.0000                 WELLS =           0.0000
    PARENT FLUX B.C. =       3.8073E-04      PARENT FLUX B.C. =       3.8073E-04

            TOTAL IN =       1.2490E-02              TOTAL IN =       1.2490E-02

          OUT:                                     OUT:
          ----                                     ----
             STORAGE =           0.0000               STORAGE =           0.0000
       CONSTANT HEAD =       6.6097E-03         CONSTANT HEAD =       6.6097E-03
               WELLS =           0.0000                 WELLS =           0.0000
    PARENT FLUX B.C. =       5.8807E-03      PARENT FLUX B.C. =       5.8807E-03

           TOTAL OUT =       1.2490E-02             TOTAL OUT =       1.2490E-02

            IN - OUT =       9.3132E-10              IN - OUT =       9.3132E-10

 PERCENT DISCREPANCY =           0.00     PERCENT DISCREPANCY =           0.00






          TIME SUMMARY AT END OF TIME STEP   1 IN STRESS PERIOD    1
                    SECONDS     MINUTES      HOURS       DAYS        YEARS
                    -----------------------------------------------------------
   TIME STEP LENGTH  1.0000     1.66667E-02 2.77778E-04 1.15741E-05 3.16881E-08
 STRESS PERIOD TIME  1.0000     1.66667E-02 2.77778E-04 1.15741E-05 3.16881E-08
         TOTAL TIME  1.0000     1.66667E-02 2.77778E-04 1.15741E-05 3.16881E-08
1
